REMARK  Name = ../refined-set-2016/4q83/4q83_pocket.pdb
REMARK  150 active torsions:
REMARK  status: ('A' for Active; 'I' for Inactive)
REMARK    1  A    between atoms: _1  and  _3
REMARK    2  A    between atoms: _3  and  _4
REMARK    3  A    between atoms: _3  and  _6
REMARK    4  A    between atoms: _6  and  _7
REMARK    5  A    between atoms: _17  and  _19
REMARK    6  A    between atoms: _19  and  _20
REMARK    7  A    between atoms: _19  and  _22
REMARK    8  A    between atoms: _22  and  _23
REMARK    9  A    between atoms: _28  and  _29
REMARK   10  A    between atoms: _31  and  _33
REMARK   11  A    between atoms: _33  and  _34
REMARK   12  A    between atoms: _33  and  _36
REMARK   13  A    between atoms: _36  and  _37
REMARK   14  A    between atoms: _39  and  _41
REMARK   15  A    between atoms: _41  and  _42
REMARK   16  A    between atoms: _41  and  _44
REMARK   17  A    between atoms: _44  and  _45
REMARK   18  A    between atoms: _50  and  _52
REMARK   19  A    between atoms: _52  and  _53
REMARK   20  A    between atoms: _52  and  _55
REMARK   21  A    between atoms: _55  and  _56
REMARK   22  A    between atoms: _61  and  _63
REMARK   23  A    between atoms: _63  and  _64
REMARK   24  A    between atoms: _67  and  _69
REMARK   25  A    between atoms: _69  and  _70
REMARK   26  A    between atoms: _69  and  _72
REMARK   27  A    between atoms: _72  and  _73
REMARK   28  A    between atoms: _78  and  _80
REMARK   29  A    between atoms: _80  and  _81
REMARK   30  A    between atoms: _80  and  _83
REMARK   31  A    between atoms: _83  and  _84
REMARK   32  A    between atoms: _87  and  _89
REMARK   33  A    between atoms: _89  and  _90
REMARK   34  A    between atoms: _89  and  _92
REMARK   35  A    between atoms: _92  and  _93
REMARK   36  A    between atoms: _93  and  _94
REMARK   37  A    between atoms: _99  and  _101
REMARK   38  A    between atoms: _101  and  _102
REMARK   39  A    between atoms: _101  and  _104
REMARK   40  A    between atoms: _104  and  _105
REMARK   41  A    between atoms: _111  and  _113
REMARK   42  A    between atoms: _124  and  _127
REMARK   43  A    between atoms: _127  and  _128
REMARK   44  A    between atoms: _136  and  _137
REMARK   45  A    between atoms: _145  and  _147
REMARK   46  A    between atoms: _147  and  _148
REMARK   47  A    between atoms: _147  and  _150
REMARK   48  A    between atoms: _150  and  _151
REMARK   49  A    between atoms: _151  and  _152
REMARK   50  A    between atoms: _155  and  _157
REMARK   51  A    between atoms: _157  and  _158
REMARK   52  A    between atoms: _157  and  _160
REMARK   53  A    between atoms: _160  and  _161
REMARK   54  A    between atoms: _166  and  _168
REMARK   55  A    between atoms: _168  and  _169
REMARK   56  A    between atoms: _168  and  _171
REMARK   57  A    between atoms: _171  and  _172
REMARK   58  A    between atoms: _172  and  _173
REMARK   59  A    between atoms: _176  and  _178
REMARK   60  A    between atoms: _178  and  _179
REMARK   61  A    between atoms: _178  and  _181
REMARK   62  A    between atoms: _181  and  _182
REMARK   63  A    between atoms: _185  and  _187
REMARK   64  A    between atoms: _187  and  _188
REMARK   65  A    between atoms: _187  and  _190
REMARK   66  A    between atoms: _190  and  _191
REMARK   67  A    between atoms: _192  and  ZN_416
REMARK   68  A    between atoms: _196  and  _198
REMARK   69  A    between atoms: _198  and  _199
REMARK   70  A    between atoms: _198  and  _201
REMARK   71  A    between atoms: _201  and  _202
REMARK   72  A    between atoms: _205  and  _207
REMARK   73  A    between atoms: _207  and  _208
REMARK   74  A    between atoms: _207  and  _210
REMARK   75  A    between atoms: _213  and  _215
REMARK   76  A    between atoms: _215  and  _216
REMARK   77  A    between atoms: _215  and  _218
REMARK   78  A    between atoms: _218  and  _219
REMARK   79  A    between atoms: _224  and  _226
REMARK   80  A    between atoms: _226  and  _227
REMARK   81  A    between atoms: _226  and  _229
REMARK   82  A    between atoms: _229  and  _230
REMARK   83  A    between atoms: _236  and  _238
REMARK   84  A    between atoms: _238  and  _239
REMARK   85  A    between atoms: _238  and  _241
REMARK   86  A    between atoms: _244  and  _246
REMARK   87  A    between atoms: _246  and  _247
REMARK   88  A    between atoms: _246  and  _249
REMARK   89  A    between atoms: _249  and  _250
REMARK   90  A    between atoms: _253  and  _255
REMARK   91  A    between atoms: _255  and  _256
REMARK   92  A    between atoms: _259  and  _261
REMARK   93  A    between atoms: _261  and  _262
REMARK   94  A    between atoms: _261  and  _264
REMARK   95  A    between atoms: _267  and  _269
REMARK   96  A    between atoms: _269  and  _270
REMARK   97  A    between atoms: _269  and  _272
REMARK   98  A    between atoms: _272  and  _273
REMARK   99  A    between atoms: _276  and  _278
REMARK  100  A    between atoms: _278  and  _279
REMARK  101  A    between atoms: _281  and  _283
REMARK  102  A    between atoms: _283  and  _284
REMARK  103  A    between atoms: _283  and  _286
REMARK  104  A    between atoms: _286  and  _287
REMARK  105  A    between atoms: _289  and  _291
REMARK  106  A    between atoms: _291  and  _292
REMARK  107  A    between atoms: _291  and  _294
REMARK  108  A    between atoms: _294  and  _295
REMARK  109  A    between atoms: _298  and  _300
REMARK  110  A    between atoms: _300  and  _301
REMARK  111  A    between atoms: _300  and  _303
REMARK  112  A    between atoms: _303  and  _304
REMARK  113  A    between atoms: _307  and  _309
REMARK  114  A    between atoms: _309  and  _310
REMARK  115  A    between atoms: _309  and  _312
REMARK  116  A    between atoms: _312  and  _313
REMARK  117  A    between atoms: _317  and  _318
REMARK  118  A    between atoms: _324  and  _325
REMARK  119  A    between atoms: _330  and  _332
REMARK  120  A    between atoms: _332  and  _333
REMARK  121  A    between atoms: _332  and  _335
REMARK  122  A    between atoms: _335  and  _336
REMARK  123  A    between atoms: _339  and  _341
REMARK  124  A    between atoms: _341  and  _342
REMARK  125  A    between atoms: _341  and  _344
REMARK  126  A    between atoms: _344  and  _345
REMARK  127  A    between atoms: _348  and  _350
REMARK  128  A    between atoms: _350  and  _351
REMARK  129  A    between atoms: _350  and  _353
REMARK  130  A    between atoms: _355  and  _357
REMARK  131  A    between atoms: _357  and  _358
REMARK  132  A    between atoms: _357  and  _360
REMARK  133  A    between atoms: _363  and  _365
REMARK  134  A    between atoms: _365  and  _366
REMARK  135  A    between atoms: _365  and  _368
REMARK  136  A    between atoms: _368  and  _369
REMARK  137  A    between atoms: _372  and  _374
REMARK  138  A    between atoms: _374  and  _375
REMARK  139  A    between atoms: _374  and  _377
REMARK  140  A    between atoms: _377  and  _378
REMARK  141  A    between atoms: _388  and  _390
REMARK  142  A    between atoms: _390  and  _391
REMARK  143  A    between atoms: _390  and  _393
REMARK  144  A    between atoms: _393  and  _394
REMARK  145  A    between atoms: _399  and  _401
REMARK  146  A    between atoms: _401  and  _402
REMARK  147  A    between atoms: _401  and  _404
REMARK  148  A    between atoms: _404  and  _405
REMARK  149  A    between atoms: _405  and  _406
REMARK  150  A    between atoms: _406  and  _407
REMARK                            x       y       z     vdW  Elec       q    Type
REMARK                         _______ _______ _______ _____ _____    ______ ____
ROOT
ATOM      1  CG  TRP A   1      26.840  -0.192  12.009  0.00  0.00    -0.002 A 
ATOM      2  CD2 TRP A   1      25.494  -0.681  12.011  0.00  0.00    +0.013 A 
ATOM      3  CE3 TRP A   1      24.909  -1.944  12.247  0.00  0.00    +0.001 A 
ATOM      4  CZ3 TRP A   1      23.465  -2.042  12.137  0.00  0.00    +0.000 A 
ATOM      5  CH2 TRP A   1      22.690  -0.937  11.814  0.00  0.00    +0.001 A 
ATOM      6  CZ2 TRP A   1      23.263   0.277  11.534  0.00  0.00    +0.017 A 
ATOM      7  CE2 TRP A   1      24.657   0.404  11.667  0.00  0.00    +0.056 A 
ATOM      8  NE1 TRP A   1      25.443   1.515  11.479  0.00  0.00    -0.352 N 
ATOM      9  HE1 TRP A   1      25.101   2.458  11.204  0.00  0.00    +0.166 HD
ATOM     10  CD1 TRP A   1      26.745   1.181  11.712  0.00  0.00    +0.068 A 
ENDROOT
BRANCH   1  11
ATOM     11  CB  TRP A   1      28.104  -0.988  12.367  0.00  0.00    +0.048 C 
BRANCH  11  12
ATOM     12  CA  TRP A   1      28.770  -1.638  11.164  0.00  0.00    +0.106 C 
BRANCH  12  13
ATOM     13  N   TRP A   1      29.418  -0.582  10.351  0.00  0.00    -0.244 NA
ATOM     14  H   TRP A   1      29.138   0.417  10.418  0.00  0.00    +0.141 HD
ENDBRANCH  12  13
BRANCH  12  15
ATOM     15  C   TRP A   1      27.759  -2.467  10.379  0.00  0.00    +0.199 C 
ATOM     16  O   TRP A   1      27.105  -2.009   9.363  0.00  0.00    -0.219 OA
ENDBRANCH  12  15
ENDBRANCH  11  12
ENDBRANCH   1  11
TORSDOF 4
REMARK  Name = ../refined-set-2016/4q83/4q83_pocket.pdb
REMARK  150 active torsions:
REMARK  status: ('A' for Active; 'I' for Inactive)
REMARK    1  A    between atoms: _1  and  _3
REMARK    2  A    between atoms: _3  and  _4
REMARK    3  A    between atoms: _3  and  _6
REMARK    4  A    between atoms: _6  and  _7
REMARK    5  A    between atoms: _17  and  _19
REMARK    6  A    between atoms: _19  and  _20
REMARK    7  A    between atoms: _19  and  _22
REMARK    8  A    between atoms: _22  and  _23
REMARK    9  A    between atoms: _28  and  _29
REMARK   10  A    between atoms: _31  and  _33
REMARK   11  A    between atoms: _33  and  _34
REMARK   12  A    between atoms: _33  and  _36
REMARK   13  A    between atoms: _36  and  _37
REMARK   14  A    between atoms: _39  and  _41
REMARK   15  A    between atoms: _41  and  _42
REMARK   16  A    between atoms: _41  and  _44
REMARK   17  A    between atoms: _44  and  _45
REMARK   18  A    between atoms: _50  and  _52
REMARK   19  A    between atoms: _52  and  _53
REMARK   20  A    between atoms: _52  and  _55
REMARK   21  A    between atoms: _55  and  _56
REMARK   22  A    between atoms: _61  and  _63
REMARK   23  A    between atoms: _63  and  _64
REMARK   24  A    between atoms: _67  and  _69
REMARK   25  A    between atoms: _69  and  _70
REMARK   26  A    between atoms: _69  and  _72
REMARK   27  A    between atoms: _72  and  _73
REMARK   28  A    between atoms: _78  and  _80
REMARK   29  A    between atoms: _80  and  _81
REMARK   30  A    between atoms: _80  and  _83
REMARK   31  A    between atoms: _83  and  _84
REMARK   32  A    between atoms: _87  and  _89
REMARK   33  A    between atoms: _89  and  _90
REMARK   34  A    between atoms: _89  and  _92
REMARK   35  A    between atoms: _92  and  _93
REMARK   36  A    between atoms: _93  and  _94
REMARK   37  A    between atoms: _99  and  _101
REMARK   38  A    between atoms: _101  and  _102
REMARK   39  A    between atoms: _101  and  _104
REMARK   40  A    between atoms: _104  and  _105
REMARK   41  A    between atoms: _111  and  _113
REMARK   42  A    between atoms: _124  and  _127
REMARK   43  A    between atoms: _127  and  _128
REMARK   44  A    between atoms: _136  and  _137
REMARK   45  A    between atoms: _145  and  _147
REMARK   46  A    between atoms: _147  and  _148
REMARK   47  A    between atoms: _147  and  _150
REMARK   48  A    between atoms: _150  and  _151
REMARK   49  A    between atoms: _151  and  _152
REMARK   50  A    between atoms: _155  and  _157
REMARK   51  A    between atoms: _157  and  _158
REMARK   52  A    between atoms: _157  and  _160
REMARK   53  A    between atoms: _160  and  _161
REMARK   54  A    between atoms: _166  and  _168
REMARK   55  A    between atoms: _168  and  _169
REMARK   56  A    between atoms: _168  and  _171
REMARK   57  A    between atoms: _171  and  _172
REMARK   58  A    between atoms: _172  and  _173
REMARK   59  A    between atoms: _176  and  _178
REMARK   60  A    between atoms: _178  and  _179
REMARK   61  A    between atoms: _178  and  _181
REMARK   62  A    between atoms: _181  and  _182
REMARK   63  A    between atoms: _185  and  _187
REMARK   64  A    between atoms: _187  and  _188
REMARK   65  A    between atoms: _187  and  _190
REMARK   66  A    between atoms: _190  and  _191
REMARK   67  A    between atoms: _192  and  ZN_416
REMARK   68  A    between atoms: _196  and  _198
REMARK   69  A    between atoms: _198  and  _199
REMARK   70  A    between atoms: _198  and  _201
REMARK   71  A    between atoms: _201  and  _202
REMARK   72  A    between atoms: _205  and  _207
REMARK   73  A    between atoms: _207  and  _208
REMARK   74  A    between atoms: _207  and  _210
REMARK   75  A    between atoms: _213  and  _215
REMARK   76  A    between atoms: _215  and  _216
REMARK   77  A    between atoms: _215  and  _218
REMARK   78  A    between atoms: _218  and  _219
REMARK   79  A    between atoms: _224  and  _226
REMARK   80  A    between atoms: _226  and  _227
REMARK   81  A    between atoms: _226  and  _229
REMARK   82  A    between atoms: _229  and  _230
REMARK   83  A    between atoms: _236  and  _238
REMARK   84  A    between atoms: _238  and  _239
REMARK   85  A    between atoms: _238  and  _241
REMARK   86  A    between atoms: _244  and  _246
REMARK   87  A    between atoms: _246  and  _247
REMARK   88  A    between atoms: _246  and  _249
REMARK   89  A    between atoms: _249  and  _250
REMARK   90  A    between atoms: _253  and  _255
REMARK   91  A    between atoms: _255  and  _256
REMARK   92  A    between atoms: _259  and  _261
REMARK   93  A    between atoms: _261  and  _262
REMARK   94  A    between atoms: _261  and  _264
REMARK   95  A    between atoms: _267  and  _269
REMARK   96  A    between atoms: _269  and  _270
REMARK   97  A    between atoms: _269  and  _272
REMARK   98  A    between atoms: _272  and  _273
REMARK   99  A    between atoms: _276  and  _278
REMARK  100  A    between atoms: _278  and  _279
REMARK  101  A    between atoms: _281  and  _283
REMARK  102  A    between atoms: _283  and  _284
REMARK  103  A    between atoms: _283  and  _286
REMARK  104  A    between atoms: _286  and  _287
REMARK  105  A    between atoms: _289  and  _291
REMARK  106  A    between atoms: _291  and  _292
REMARK  107  A    between atoms: _291  and  _294
REMARK  108  A    between atoms: _294  and  _295
REMARK  109  A    between atoms: _298  and  _300
REMARK  110  A    between atoms: _300  and  _301
REMARK  111  A    between atoms: _300  and  _303
REMARK  112  A    between atoms: _303  and  _304
REMARK  113  A    between atoms: _307  and  _309
REMARK  114  A    between atoms: _309  and  _310
REMARK  115  A    between atoms: _309  and  _312
REMARK  116  A    between atoms: _312  and  _313
REMARK  117  A    between atoms: _317  and  _318
REMARK  118  A    between atoms: _324  and  _325
REMARK  119  A    between atoms: _330  and  _332
REMARK  120  A    between atoms: _332  and  _333
REMARK  121  A    between atoms: _332  and  _335
REMARK  122  A    between atoms: _335  and  _336
REMARK  123  A    between atoms: _339  and  _341
REMARK  124  A    between atoms: _341  and  _342
REMARK  125  A    between atoms: _341  and  _344
REMARK  126  A    between atoms: _344  and  _345
REMARK  127  A    between atoms: _348  and  _350
REMARK  128  A    between atoms: _350  and  _351
REMARK  129  A    between atoms: _350  and  _353
REMARK  130  A    between atoms: _355  and  _357
REMARK  131  A    between atoms: _357  and  _358
REMARK  132  A    between atoms: _357  and  _360
REMARK  133  A    between atoms: _363  and  _365
REMARK  134  A    between atoms: _365  and  _366
REMARK  135  A    between atoms: _365  and  _368
REMARK  136  A    between atoms: _368  and  _369
REMARK  137  A    between atoms: _372  and  _374
REMARK  138  A    between atoms: _374  and  _375
REMARK  139  A    between atoms: _374  and  _377
REMARK  140  A    between atoms: _377  and  _378
REMARK  141  A    between atoms: _388  and  _390
REMARK  142  A    between atoms: _390  and  _391
REMARK  143  A    between atoms: _390  and  _393
REMARK  144  A    between atoms: _393  and  _394
REMARK  145  A    between atoms: _399  and  _401
REMARK  146  A    between atoms: _401  and  _402
REMARK  147  A    between atoms: _401  and  _404
REMARK  148  A    between atoms: _404  and  _405
REMARK  149  A    between atoms: _405  and  _406
REMARK  150  A    between atoms: _406  and  _407
REMARK                            x       y       z     vdW  Elec       q    Type
REMARK                         _______ _______ _______ _____ _____    ______ ____
ROOT
ATOM      1  CG  TYR A   1      23.151  -7.308  11.914  0.00  0.00    -0.020 A 
ATOM      2  CD2 TYR A   1      22.758  -7.329  13.248  0.00  0.00    -0.001 A 
ATOM      3  CE2 TYR A   1      21.900  -6.356  13.752  0.00  0.00    +0.036 A 
ATOM      4  CZ  TYR A   1      21.434  -5.372  12.885  0.00  0.00    +0.134 A 
ATOM      5  CE1 TYR A   1      21.816  -5.322  11.527  0.00  0.00    +0.036 A 
ATOM      6  CD1 TYR A   1      22.632  -6.326  11.056  0.00  0.00    -0.001 A 
ENDROOT
BRANCH   4   7
ATOM      7  OH  TYR A   1      20.593  -4.360  13.225  0.00  0.00    -0.506 OA
ATOM      8  HH  TYR A   1      20.355  -4.438  14.183  0.00  0.00    +0.292 HD
ENDBRANCH   4   7
BRANCH   1   9
ATOM      9  CB  TYR A   1      24.078  -8.415  11.421  0.00  0.00    +0.051 C 
BRANCH   9  10
ATOM     10  CA  TYR A   1      25.544  -8.028  11.601  0.00  0.00    +0.137 C 
BRANCH  10  11
ATOM     11  N   TYR A   1      25.901  -6.863  10.775  0.00  0.00    -0.239 NA
ATOM     12  H   TYR A   1      25.915  -6.950   9.739  0.00  0.00    +0.142 HD
ENDBRANCH  10  11
BRANCH  10  13
ATOM     13  C   TYR A   1      26.425  -9.232  11.365  0.00  0.00    +0.224 C 
ATOM     14  O   TYR A   1      26.108 -10.334  11.838  0.00  0.00    -0.287 OA
ENDBRANCH  10  13
ENDBRANCH   9  10
ENDBRANCH   1   9
TORSDOF 5
REMARK  Name = ../refined-set-2016/4q83/4q83_pocket.pdb
REMARK  150 active torsions:
REMARK  status: ('A' for Active; 'I' for Inactive)
REMARK    1  A    between atoms: _1  and  _3
REMARK    2  A    between atoms: _3  and  _4
REMARK    3  A    between atoms: _3  and  _6
REMARK    4  A    between atoms: _6  and  _7
REMARK    5  A    between atoms: _17  and  _19
REMARK    6  A    between atoms: _19  and  _20
REMARK    7  A    between atoms: _19  and  _22
REMARK    8  A    between atoms: _22  and  _23
REMARK    9  A    between atoms: _28  and  _29
REMARK   10  A    between atoms: _31  and  _33
REMARK   11  A    between atoms: _33  and  _34
REMARK   12  A    between atoms: _33  and  _36
REMARK   13  A    between atoms: _36  and  _37
REMARK   14  A    between atoms: _39  and  _41
REMARK   15  A    between atoms: _41  and  _42
REMARK   16  A    between atoms: _41  and  _44
REMARK   17  A    between atoms: _44  and  _45
REMARK   18  A    between atoms: _50  and  _52
REMARK   19  A    between atoms: _52  and  _53
REMARK   20  A    between atoms: _52  and  _55
REMARK   21  A    between atoms: _55  and  _56
REMARK   22  A    between atoms: _61  and  _63
REMARK   23  A    between atoms: _63  and  _64
REMARK   24  A    between atoms: _67  and  _69
REMARK   25  A    between atoms: _69  and  _70
REMARK   26  A    between atoms: _69  and  _72
REMARK   27  A    between atoms: _72  and  _73
REMARK   28  A    between atoms: _78  and  _80
REMARK   29  A    between atoms: _80  and  _81
REMARK   30  A    between atoms: _80  and  _83
REMARK   31  A    between atoms: _83  and  _84
REMARK   32  A    between atoms: _87  and  _89
REMARK   33  A    between atoms: _89  and  _90
REMARK   34  A    between atoms: _89  and  _92
REMARK   35  A    between atoms: _92  and  _93
REMARK   36  A    between atoms: _93  and  _94
REMARK   37  A    between atoms: _99  and  _101
REMARK   38  A    between atoms: _101  and  _102
REMARK   39  A    between atoms: _101  and  _104
REMARK   40  A    between atoms: _104  and  _105
REMARK   41  A    between atoms: _111  and  _113
REMARK   42  A    between atoms: _124  and  _127
REMARK   43  A    between atoms: _127  and  _128
REMARK   44  A    between atoms: _136  and  _137
REMARK   45  A    between atoms: _145  and  _147
REMARK   46  A    between atoms: _147  and  _148
REMARK   47  A    between atoms: _147  and  _150
REMARK   48  A    between atoms: _150  and  _151
REMARK   49  A    between atoms: _151  and  _152
REMARK   50  A    between atoms: _155  and  _157
REMARK   51  A    between atoms: _157  and  _158
REMARK   52  A    between atoms: _157  and  _160
REMARK   53  A    between atoms: _160  and  _161
REMARK   54  A    between atoms: _166  and  _168
REMARK   55  A    between atoms: _168  and  _169
REMARK   56  A    between atoms: _168  and  _171
REMARK   57  A    between atoms: _171  and  _172
REMARK   58  A    between atoms: _172  and  _173
REMARK   59  A    between atoms: _176  and  _178
REMARK   60  A    between atoms: _178  and  _179
REMARK   61  A    between atoms: _178  and  _181
REMARK   62  A    between atoms: _181  and  _182
REMARK   63  A    between atoms: _185  and  _187
REMARK   64  A    between atoms: _187  and  _188
REMARK   65  A    between atoms: _187  and  _190
REMARK   66  A    between atoms: _190  and  _191
REMARK   67  A    between atoms: _192  and  ZN_416
REMARK   68  A    between atoms: _196  and  _198
REMARK   69  A    between atoms: _198  and  _199
REMARK   70  A    between atoms: _198  and  _201
REMARK   71  A    between atoms: _201  and  _202
REMARK   72  A    between atoms: _205  and  _207
REMARK   73  A    between atoms: _207  and  _208
REMARK   74  A    between atoms: _207  and  _210
REMARK   75  A    between atoms: _213  and  _215
REMARK   76  A    between atoms: _215  and  _216
REMARK   77  A    between atoms: _215  and  _218
REMARK   78  A    between atoms: _218  and  _219
REMARK   79  A    between atoms: _224  and  _226
REMARK   80  A    between atoms: _226  and  _227
REMARK   81  A    between atoms: _226  and  _229
REMARK   82  A    between atoms: _229  and  _230
REMARK   83  A    between atoms: _236  and  _238
REMARK   84  A    between atoms: _238  and  _239
REMARK   85  A    between atoms: _238  and  _241
REMARK   86  A    between atoms: _244  and  _246
REMARK   87  A    between atoms: _246  and  _247
REMARK   88  A    between atoms: _246  and  _249
REMARK   89  A    between atoms: _249  and  _250
REMARK   90  A    between atoms: _253  and  _255
REMARK   91  A    between atoms: _255  and  _256
REMARK   92  A    between atoms: _259  and  _261
REMARK   93  A    between atoms: _261  and  _262
REMARK   94  A    between atoms: _261  and  _264
REMARK   95  A    between atoms: _267  and  _269
REMARK   96  A    between atoms: _269  and  _270
REMARK   97  A    between atoms: _269  and  _272
REMARK   98  A    between atoms: _272  and  _273
REMARK   99  A    between atoms: _276  and  _278
REMARK  100  A    between atoms: _278  and  _279
REMARK  101  A    between atoms: _281  and  _283
REMARK  102  A    between atoms: _283  and  _284
REMARK  103  A    between atoms: _283  and  _286
REMARK  104  A    between atoms: _286  and  _287
REMARK  105  A    between atoms: _289  and  _291
REMARK  106  A    between atoms: _291  and  _292
REMARK  107  A    between atoms: _291  and  _294
REMARK  108  A    between atoms: _294  and  _295
REMARK  109  A    between atoms: _298  and  _300
REMARK  110  A    between atoms: _300  and  _301
REMARK  111  A    between atoms: _300  and  _303
REMARK  112  A    between atoms: _303  and  _304
REMARK  113  A    between atoms: _307  and  _309
REMARK  114  A    between atoms: _309  and  _310
REMARK  115  A    between atoms: _309  and  _312
REMARK  116  A    between atoms: _312  and  _313
REMARK  117  A    between atoms: _317  and  _318
REMARK  118  A    between atoms: _324  and  _325
REMARK  119  A    between atoms: _330  and  _332
REMARK  120  A    between atoms: _332  and  _333
REMARK  121  A    between atoms: _332  and  _335
REMARK  122  A    between atoms: _335  and  _336
REMARK  123  A    between atoms: _339  and  _341
REMARK  124  A    between atoms: _341  and  _342
REMARK  125  A    between atoms: _341  and  _344
REMARK  126  A    between atoms: _344  and  _345
REMARK  127  A    between atoms: _348  and  _350
REMARK  128  A    between atoms: _350  and  _351
REMARK  129  A    between atoms: _350  and  _353
REMARK  130  A    between atoms: _355  and  _357
REMARK  131  A    between atoms: _357  and  _358
REMARK  132  A    between atoms: _357  and  _360
REMARK  133  A    between atoms: _363  and  _365
REMARK  134  A    between atoms: _365  and  _366
REMARK  135  A    between atoms: _365  and  _368
REMARK  136  A    between atoms: _368  and  _369
REMARK  137  A    between atoms: _372  and  _374
REMARK  138  A    between atoms: _374  and  _375
REMARK  139  A    between atoms: _374  and  _377
REMARK  140  A    between atoms: _377  and  _378
REMARK  141  A    between atoms: _388  and  _390
REMARK  142  A    between atoms: _390  and  _391
REMARK  143  A    between atoms: _390  and  _393
REMARK  144  A    between atoms: _393  and  _394
REMARK  145  A    between atoms: _399  and  _401
REMARK  146  A    between atoms: _401  and  _402
REMARK  147  A    between atoms: _401  and  _404
REMARK  148  A    between atoms: _404  and  _405
REMARK  149  A    between atoms: _405  and  _406
REMARK  150  A    between atoms: _406  and  _407
REMARK                            x       y       z     vdW  Elec       q    Type
REMARK                         _______ _______ _______ _____ _____    ______ ____
ROOT
ATOM      1  CA  SER A   1      18.291  -2.381  24.260  0.00  0.00    +0.163 C 
ENDROOT
BRANCH   1   2
ATOM      2  N   SER A   1      19.348  -1.530  24.763  0.00  0.00    -0.237 NA
ATOM      3  H   SER A   1      19.870  -0.962  24.065  0.00  0.00    +0.142 HD
ENDBRANCH   1   2
BRANCH   1   4
ATOM      4  C   SER A   1      18.841  -3.279  23.177  0.00  0.00    +0.227 C 
ATOM      5  O   SER A   1      19.783  -2.920  22.486  0.00  0.00    -0.287 OA
ENDBRANCH   1   4
BRANCH   1   6
ATOM      6  CB  SER A   1      17.177  -1.519  23.668  0.00  0.00    +0.162 C 
BRANCH   6   7
ATOM      7  OG  SER A   1      16.523  -0.868  24.761  0.00  0.00    -0.380 OA
ATOM      8  H   SER A   1      16.149  -1.550  25.374  0.00  0.00    +0.211 HD
ENDBRANCH   6   7
ENDBRANCH   1   6
TORSDOF 4
REMARK  Name = ../refined-set-2016/4q83/4q83_pocket.pdb
REMARK  150 active torsions:
REMARK  status: ('A' for Active; 'I' for Inactive)
REMARK    1  A    between atoms: _1  and  _3
REMARK    2  A    between atoms: _3  and  _4
REMARK    3  A    between atoms: _3  and  _6
REMARK    4  A    between atoms: _6  and  _7
REMARK    5  A    between atoms: _17  and  _19
REMARK    6  A    between atoms: _19  and  _20
REMARK    7  A    between atoms: _19  and  _22
REMARK    8  A    between atoms: _22  and  _23
REMARK    9  A    between atoms: _28  and  _29
REMARK   10  A    between atoms: _31  and  _33
REMARK   11  A    between atoms: _33  and  _34
REMARK   12  A    between atoms: _33  and  _36
REMARK   13  A    between atoms: _36  and  _37
REMARK   14  A    between atoms: _39  and  _41
REMARK   15  A    between atoms: _41  and  _42
REMARK   16  A    between atoms: _41  and  _44
REMARK   17  A    between atoms: _44  and  _45
REMARK   18  A    between atoms: _50  and  _52
REMARK   19  A    between atoms: _52  and  _53
REMARK   20  A    between atoms: _52  and  _55
REMARK   21  A    between atoms: _55  and  _56
REMARK   22  A    between atoms: _61  and  _63
REMARK   23  A    between atoms: _63  and  _64
REMARK   24  A    between atoms: _67  and  _69
REMARK   25  A    between atoms: _69  and  _70
REMARK   26  A    between atoms: _69  and  _72
REMARK   27  A    between atoms: _72  and  _73
REMARK   28  A    between atoms: _78  and  _80
REMARK   29  A    between atoms: _80  and  _81
REMARK   30  A    between atoms: _80  and  _83
REMARK   31  A    between atoms: _83  and  _84
REMARK   32  A    between atoms: _87  and  _89
REMARK   33  A    between atoms: _89  and  _90
REMARK   34  A    between atoms: _89  and  _92
REMARK   35  A    between atoms: _92  and  _93
REMARK   36  A    between atoms: _93  and  _94
REMARK   37  A    between atoms: _99  and  _101
REMARK   38  A    between atoms: _101  and  _102
REMARK   39  A    between atoms: _101  and  _104
REMARK   40  A    between atoms: _104  and  _105
REMARK   41  A    between atoms: _111  and  _113
REMARK   42  A    between atoms: _124  and  _127
REMARK   43  A    between atoms: _127  and  _128
REMARK   44  A    between atoms: _136  and  _137
REMARK   45  A    between atoms: _145  and  _147
REMARK   46  A    between atoms: _147  and  _148
REMARK   47  A    between atoms: _147  and  _150
REMARK   48  A    between atoms: _150  and  _151
REMARK   49  A    between atoms: _151  and  _152
REMARK   50  A    between atoms: _155  and  _157
REMARK   51  A    between atoms: _157  and  _158
REMARK   52  A    between atoms: _157  and  _160
REMARK   53  A    between atoms: _160  and  _161
REMARK   54  A    between atoms: _166  and  _168
REMARK   55  A    between atoms: _168  and  _169
REMARK   56  A    between atoms: _168  and  _171
REMARK   57  A    between atoms: _171  and  _172
REMARK   58  A    between atoms: _172  and  _173
REMARK   59  A    between atoms: _176  and  _178
REMARK   60  A    between atoms: _178  and  _179
REMARK   61  A    between atoms: _178  and  _181
REMARK   62  A    between atoms: _181  and  _182
REMARK   63  A    between atoms: _185  and  _187
REMARK   64  A    between atoms: _187  and  _188
REMARK   65  A    between atoms: _187  and  _190
REMARK   66  A    between atoms: _190  and  _191
REMARK   67  A    between atoms: _192  and  ZN_416
REMARK   68  A    between atoms: _196  and  _198
REMARK   69  A    between atoms: _198  and  _199
REMARK   70  A    between atoms: _198  and  _201
REMARK   71  A    between atoms: _201  and  _202
REMARK   72  A    between atoms: _205  and  _207
REMARK   73  A    between atoms: _207  and  _208
REMARK   74  A    between atoms: _207  and  _210
REMARK   75  A    between atoms: _213  and  _215
REMARK   76  A    between atoms: _215  and  _216
REMARK   77  A    between atoms: _215  and  _218
REMARK   78  A    between atoms: _218  and  _219
REMARK   79  A    between atoms: _224  and  _226
REMARK   80  A    between atoms: _226  and  _227
REMARK   81  A    between atoms: _226  and  _229
REMARK   82  A    between atoms: _229  and  _230
REMARK   83  A    between atoms: _236  and  _238
REMARK   84  A    between atoms: _238  and  _239
REMARK   85  A    between atoms: _238  and  _241
REMARK   86  A    between atoms: _244  and  _246
REMARK   87  A    between atoms: _246  and  _247
REMARK   88  A    between atoms: _246  and  _249
REMARK   89  A    between atoms: _249  and  _250
REMARK   90  A    between atoms: _253  and  _255
REMARK   91  A    between atoms: _255  and  _256
REMARK   92  A    between atoms: _259  and  _261
REMARK   93  A    between atoms: _261  and  _262
REMARK   94  A    between atoms: _261  and  _264
REMARK   95  A    between atoms: _267  and  _269
REMARK   96  A    between atoms: _269  and  _270
REMARK   97  A    between atoms: _269  and  _272
REMARK   98  A    between atoms: _272  and  _273
REMARK   99  A    between atoms: _276  and  _278
REMARK  100  A    between atoms: _278  and  _279
REMARK  101  A    between atoms: _281  and  _283
REMARK  102  A    between atoms: _283  and  _284
REMARK  103  A    between atoms: _283  and  _286
REMARK  104  A    between atoms: _286  and  _287
REMARK  105  A    between atoms: _289  and  _291
REMARK  106  A    between atoms: _291  and  _292
REMARK  107  A    between atoms: _291  and  _294
REMARK  108  A    between atoms: _294  and  _295
REMARK  109  A    between atoms: _298  and  _300
REMARK  110  A    between atoms: _300  and  _301
REMARK  111  A    between atoms: _300  and  _303
REMARK  112  A    between atoms: _303  and  _304
REMARK  113  A    between atoms: _307  and  _309
REMARK  114  A    between atoms: _309  and  _310
REMARK  115  A    between atoms: _309  and  _312
REMARK  116  A    between atoms: _312  and  _313
REMARK  117  A    between atoms: _317  and  _318
REMARK  118  A    between atoms: _324  and  _325
REMARK  119  A    between atoms: _330  and  _332
REMARK  120  A    between atoms: _332  and  _333
REMARK  121  A    between atoms: _332  and  _335
REMARK  122  A    between atoms: _335  and  _336
REMARK  123  A    between atoms: _339  and  _341
REMARK  124  A    between atoms: _341  and  _342
REMARK  125  A    between atoms: _341  and  _344
REMARK  126  A    between atoms: _344  and  _345
REMARK  127  A    between atoms: _348  and  _350
REMARK  128  A    between atoms: _350  and  _351
REMARK  129  A    between atoms: _350  and  _353
REMARK  130  A    between atoms: _355  and  _357
REMARK  131  A    between atoms: _357  and  _358
REMARK  132  A    between atoms: _357  and  _360
REMARK  133  A    between atoms: _363  and  _365
REMARK  134  A    between atoms: _365  and  _366
REMARK  135  A    between atoms: _365  and  _368
REMARK  136  A    between atoms: _368  and  _369
REMARK  137  A    between atoms: _372  and  _374
REMARK  138  A    between atoms: _374  and  _375
REMARK  139  A    between atoms: _374  and  _377
REMARK  140  A    between atoms: _377  and  _378
REMARK  141  A    between atoms: _388  and  _390
REMARK  142  A    between atoms: _390  and  _391
REMARK  143  A    between atoms: _390  and  _393
REMARK  144  A    between atoms: _393  and  _394
REMARK  145  A    between atoms: _399  and  _401
REMARK  146  A    between atoms: _401  and  _402
REMARK  147  A    between atoms: _401  and  _404
REMARK  148  A    between atoms: _404  and  _405
REMARK  149  A    between atoms: _405  and  _406
REMARK  150  A    between atoms: _406  and  _407
REMARK                            x       y       z     vdW  Elec       q    Type
REMARK                         _______ _______ _______ _____ _____    ______ ____
ROOT
ATOM      1  CB  ASN A   1      18.566   1.812   5.350  0.00  0.00    +0.110 C 
ENDROOT
BRANCH   1   2
ATOM      2  CG  ASN A   1      18.356   0.984   6.573  0.00  0.00    +0.221 C 
ATOM      3  ND2 ASN A   1      18.032   1.614   7.667  0.00  0.00    -0.329 N 
ATOM      4 HD21 ASN A   1      17.902   1.085   8.553  0.00  0.00    +0.145 HD
ATOM      5 HD22 ASN A   1      17.903   2.646   7.654  0.00  0.00    +0.145 HD
ATOM      6  OD1 ASN A   1      18.522  -0.211   6.511  0.00  0.00    -0.275 OA
ENDBRANCH   1   2
BRANCH   1   7
ATOM      7  CA  ASN A   1      18.896   0.946   4.125  0.00  0.00    +0.142 C 
BRANCH   7   8
ATOM      8  N   ASN A   1      17.744   0.154   3.659  0.00  0.00    -0.239 NA
ATOM      9  H   ASN A   1      17.140  -0.339   4.347  0.00  0.00    +0.142 HD
ENDBRANCH   7   8
BRANCH   7  10
ATOM     10  C   ASN A   1      20.162   0.191   4.372  0.00  0.00    +0.225 C 
ATOM     11  O   ASN A   1      21.138   0.711   4.931  0.00  0.00    -0.287 OA
ENDBRANCH   7  10
ENDBRANCH   1   7
TORSDOF 4
REMARK  Name = ../refined-set-2016/4q83/4q83_pocket.pdb
REMARK  150 active torsions:
REMARK  status: ('A' for Active; 'I' for Inactive)
REMARK    1  A    between atoms: _1  and  _3
REMARK    2  A    between atoms: _3  and  _4
REMARK    3  A    between atoms: _3  and  _6
REMARK    4  A    between atoms: _6  and  _7
REMARK    5  A    between atoms: _17  and  _19
REMARK    6  A    between atoms: _19  and  _20
REMARK    7  A    between atoms: _19  and  _22
REMARK    8  A    between atoms: _22  and  _23
REMARK    9  A    between atoms: _28  and  _29
REMARK   10  A    between atoms: _31  and  _33
REMARK   11  A    between atoms: _33  and  _34
REMARK   12  A    between atoms: _33  and  _36
REMARK   13  A    between atoms: _36  and  _37
REMARK   14  A    between atoms: _39  and  _41
REMARK   15  A    between atoms: _41  and  _42
REMARK   16  A    between atoms: _41  and  _44
REMARK   17  A    between atoms: _44  and  _45
REMARK   18  A    between atoms: _50  and  _52
REMARK   19  A    between atoms: _52  and  _53
REMARK   20  A    between atoms: _52  and  _55
REMARK   21  A    between atoms: _55  and  _56
REMARK   22  A    between atoms: _61  and  _63
REMARK   23  A    between atoms: _63  and  _64
REMARK   24  A    between atoms: _67  and  _69
REMARK   25  A    between atoms: _69  and  _70
REMARK   26  A    between atoms: _69  and  _72
REMARK   27  A    between atoms: _72  and  _73
REMARK   28  A    between atoms: _78  and  _80
REMARK   29  A    between atoms: _80  and  _81
REMARK   30  A    between atoms: _80  and  _83
REMARK   31  A    between atoms: _83  and  _84
REMARK   32  A    between atoms: _87  and  _89
REMARK   33  A    between atoms: _89  and  _90
REMARK   34  A    between atoms: _89  and  _92
REMARK   35  A    between atoms: _92  and  _93
REMARK   36  A    between atoms: _93  and  _94
REMARK   37  A    between atoms: _99  and  _101
REMARK   38  A    between atoms: _101  and  _102
REMARK   39  A    between atoms: _101  and  _104
REMARK   40  A    between atoms: _104  and  _105
REMARK   41  A    between atoms: _111  and  _113
REMARK   42  A    between atoms: _124  and  _127
REMARK   43  A    between atoms: _127  and  _128
REMARK   44  A    between atoms: _136  and  _137
REMARK   45  A    between atoms: _145  and  _147
REMARK   46  A    between atoms: _147  and  _148
REMARK   47  A    between atoms: _147  and  _150
REMARK   48  A    between atoms: _150  and  _151
REMARK   49  A    between atoms: _151  and  _152
REMARK   50  A    between atoms: _155  and  _157
REMARK   51  A    between atoms: _157  and  _158
REMARK   52  A    between atoms: _157  and  _160
REMARK   53  A    between atoms: _160  and  _161
REMARK   54  A    between atoms: _166  and  _168
REMARK   55  A    between atoms: _168  and  _169
REMARK   56  A    between atoms: _168  and  _171
REMARK   57  A    between atoms: _171  and  _172
REMARK   58  A    between atoms: _172  and  _173
REMARK   59  A    between atoms: _176  and  _178
REMARK   60  A    between atoms: _178  and  _179
REMARK   61  A    between atoms: _178  and  _181
REMARK   62  A    between atoms: _181  and  _182
REMARK   63  A    between atoms: _185  and  _187
REMARK   64  A    between atoms: _187  and  _188
REMARK   65  A    between atoms: _187  and  _190
REMARK   66  A    between atoms: _190  and  _191
REMARK   67  A    between atoms: _192  and  ZN_416
REMARK   68  A    between atoms: _196  and  _198
REMARK   69  A    between atoms: _198  and  _199
REMARK   70  A    between atoms: _198  and  _201
REMARK   71  A    between atoms: _201  and  _202
REMARK   72  A    between atoms: _205  and  _207
REMARK   73  A    between atoms: _207  and  _208
REMARK   74  A    between atoms: _207  and  _210
REMARK   75  A    between atoms: _213  and  _215
REMARK   76  A    between atoms: _215  and  _216
REMARK   77  A    between atoms: _215  and  _218
REMARK   78  A    between atoms: _218  and  _219
REMARK   79  A    between atoms: _224  and  _226
REMARK   80  A    between atoms: _226  and  _227
REMARK   81  A    between atoms: _226  and  _229
REMARK   82  A    between atoms: _229  and  _230
REMARK   83  A    between atoms: _236  and  _238
REMARK   84  A    between atoms: _238  and  _239
REMARK   85  A    between atoms: _238  and  _241
REMARK   86  A    between atoms: _244  and  _246
REMARK   87  A    between atoms: _246  and  _247
REMARK   88  A    between atoms: _246  and  _249
REMARK   89  A    between atoms: _249  and  _250
REMARK   90  A    between atoms: _253  and  _255
REMARK   91  A    between atoms: _255  and  _256
REMARK   92  A    between atoms: _259  and  _261
REMARK   93  A    between atoms: _261  and  _262
REMARK   94  A    between atoms: _261  and  _264
REMARK   95  A    between atoms: _267  and  _269
REMARK   96  A    between atoms: _269  and  _270
REMARK   97  A    between atoms: _269  and  _272
REMARK   98  A    between atoms: _272  and  _273
REMARK   99  A    between atoms: _276  and  _278
REMARK  100  A    between atoms: _278  and  _279
REMARK  101  A    between atoms: _281  and  _283
REMARK  102  A    between atoms: _283  and  _284
REMARK  103  A    between atoms: _283  and  _286
REMARK  104  A    between atoms: _286  and  _287
REMARK  105  A    between atoms: _289  and  _291
REMARK  106  A    between atoms: _291  and  _292
REMARK  107  A    between atoms: _291  and  _294
REMARK  108  A    between atoms: _294  and  _295
REMARK  109  A    between atoms: _298  and  _300
REMARK  110  A    between atoms: _300  and  _301
REMARK  111  A    between atoms: _300  and  _303
REMARK  112  A    between atoms: _303  and  _304
REMARK  113  A    between atoms: _307  and  _309
REMARK  114  A    between atoms: _309  and  _310
REMARK  115  A    between atoms: _309  and  _312
REMARK  116  A    between atoms: _312  and  _313
REMARK  117  A    between atoms: _317  and  _318
REMARK  118  A    between atoms: _324  and  _325
REMARK  119  A    between atoms: _330  and  _332
REMARK  120  A    between atoms: _332  and  _333
REMARK  121  A    between atoms: _332  and  _335
REMARK  122  A    between atoms: _335  and  _336
REMARK  123  A    between atoms: _339  and  _341
REMARK  124  A    between atoms: _341  and  _342
REMARK  125  A    between atoms: _341  and  _344
REMARK  126  A    between atoms: _344  and  _345
REMARK  127  A    between atoms: _348  and  _350
REMARK  128  A    between atoms: _350  and  _351
REMARK  129  A    between atoms: _350  and  _353
REMARK  130  A    between atoms: _355  and  _357
REMARK  131  A    between atoms: _357  and  _358
REMARK  132  A    between atoms: _357  and  _360
REMARK  133  A    between atoms: _363  and  _365
REMARK  134  A    between atoms: _365  and  _366
REMARK  135  A    between atoms: _365  and  _368
REMARK  136  A    between atoms: _368  and  _369
REMARK  137  A    between atoms: _372  and  _374
REMARK  138  A    between atoms: _374  and  _375
REMARK  139  A    between atoms: _374  and  _377
REMARK  140  A    between atoms: _377  and  _378
REMARK  141  A    between atoms: _388  and  _390
REMARK  142  A    between atoms: _390  and  _391
REMARK  143  A    between atoms: _390  and  _393
REMARK  144  A    between atoms: _393  and  _394
REMARK  145  A    between atoms: _399  and  _401
REMARK  146  A    between atoms: _401  and  _402
REMARK  147  A    between atoms: _401  and  _404
REMARK  148  A    between atoms: _404  and  _405
REMARK  149  A    between atoms: _405  and  _406
REMARK  150  A    between atoms: _406  and  _407
REMARK                            x       y       z     vdW  Elec       q    Type
REMARK                         _______ _______ _______ _____ _____    ______ ____
ROOT
ATOM      1  CA  HIS A   1      20.327  -3.084   7.530  0.00  0.00    +0.151 C 
ENDROOT
BRANCH   1   2
ATOM      2  C   HIS A   1      18.938  -3.705   7.702  0.00  0.00    +0.239 C 
ATOM      3  O   HIS A   1      18.785  -4.787   8.322  0.00  0.00    -0.274 OA
ATOM      4  N   ALA A   2      17.941  -3.039   7.175  0.00  0.00    -0.298 N 
ATOM      5  H   ALA A   2      18.160  -2.177   6.636  0.00  0.00    +0.150 HD
BRANCH   4   6
ATOM      6  CA  ALA A   2      16.542  -3.434   7.299  0.00  0.00    +0.137 C 
ATOM      7  CB  ALA A   2      15.949  -3.046   8.734  0.00  0.00    +0.030 C 
BRANCH   6   8
ATOM      8  C   ALA A   2      15.812  -2.685   6.173  0.00  0.00    +0.227 C 
ATOM      9  O   ALA A   2      16.448  -2.052   5.353  0.00  0.00    -0.286 OA
ENDBRANCH   6   8
ENDBRANCH   4   6
ENDBRANCH   1   2
BRANCH   1  10
ATOM     10  N   HIS A   1      20.437  -2.401   6.226  0.00  0.00    -0.238 NA
ATOM     11  H   HIS A   1      19.724  -1.683   5.985  0.00  0.00    +0.142 HD
ENDBRANCH   1  10
BRANCH   1  12
ATOM     12  CB  HIS A   1      20.628  -2.116   8.686  0.00  0.00    +0.074 C 
BRANCH  12  13
ATOM     13  CG  HIS A   1      21.954  -1.430   8.516  0.00  0.00    +0.082 A 
ATOM     14  CD2 HIS A   1      23.219  -1.912   8.611  0.00  0.00    +0.115 A 
ATOM     15  NE2 HIS A   1      24.076  -0.865   8.350  0.00  0.00    -0.221 NA
ATOM     16  CE1 HIS A   1      23.361   0.211   8.073  0.00  0.00    +0.199 A 
ATOM     17  ND1 HIS A   1      22.073  -0.103   8.178  0.00  0.00    -0.227 NA
ENDBRANCH  12  13
ENDBRANCH   1  12
TORSDOF 6
REMARK  Name = ../refined-set-2016/4q83/4q83_pocket.pdb
REMARK  150 active torsions:
REMARK  status: ('A' for Active; 'I' for Inactive)
REMARK    1  A    between atoms: _1  and  _3
REMARK    2  A    between atoms: _3  and  _4
REMARK    3  A    between atoms: _3  and  _6
REMARK    4  A    between atoms: _6  and  _7
REMARK    5  A    between atoms: _17  and  _19
REMARK    6  A    between atoms: _19  and  _20
REMARK    7  A    between atoms: _19  and  _22
REMARK    8  A    between atoms: _22  and  _23
REMARK    9  A    between atoms: _28  and  _29
REMARK   10  A    between atoms: _31  and  _33
REMARK   11  A    between atoms: _33  and  _34
REMARK   12  A    between atoms: _33  and  _36
REMARK   13  A    between atoms: _36  and  _37
REMARK   14  A    between atoms: _39  and  _41
REMARK   15  A    between atoms: _41  and  _42
REMARK   16  A    between atoms: _41  and  _44
REMARK   17  A    between atoms: _44  and  _45
REMARK   18  A    between atoms: _50  and  _52
REMARK   19  A    between atoms: _52  and  _53
REMARK   20  A    between atoms: _52  and  _55
REMARK   21  A    between atoms: _55  and  _56
REMARK   22  A    between atoms: _61  and  _63
REMARK   23  A    between atoms: _63  and  _64
REMARK   24  A    between atoms: _67  and  _69
REMARK   25  A    between atoms: _69  and  _70
REMARK   26  A    between atoms: _69  and  _72
REMARK   27  A    between atoms: _72  and  _73
REMARK   28  A    between atoms: _78  and  _80
REMARK   29  A    between atoms: _80  and  _81
REMARK   30  A    between atoms: _80  and  _83
REMARK   31  A    between atoms: _83  and  _84
REMARK   32  A    between atoms: _87  and  _89
REMARK   33  A    between atoms: _89  and  _90
REMARK   34  A    between atoms: _89  and  _92
REMARK   35  A    between atoms: _92  and  _93
REMARK   36  A    between atoms: _93  and  _94
REMARK   37  A    between atoms: _99  and  _101
REMARK   38  A    between atoms: _101  and  _102
REMARK   39  A    between atoms: _101  and  _104
REMARK   40  A    between atoms: _104  and  _105
REMARK   41  A    between atoms: _111  and  _113
REMARK   42  A    between atoms: _124  and  _127
REMARK   43  A    between atoms: _127  and  _128
REMARK   44  A    between atoms: _136  and  _137
REMARK   45  A    between atoms: _145  and  _147
REMARK   46  A    between atoms: _147  and  _148
REMARK   47  A    between atoms: _147  and  _150
REMARK   48  A    between atoms: _150  and  _151
REMARK   49  A    between atoms: _151  and  _152
REMARK   50  A    between atoms: _155  and  _157
REMARK   51  A    between atoms: _157  and  _158
REMARK   52  A    between atoms: _157  and  _160
REMARK   53  A    between atoms: _160  and  _161
REMARK   54  A    between atoms: _166  and  _168
REMARK   55  A    between atoms: _168  and  _169
REMARK   56  A    between atoms: _168  and  _171
REMARK   57  A    between atoms: _171  and  _172
REMARK   58  A    between atoms: _172  and  _173
REMARK   59  A    between atoms: _176  and  _178
REMARK   60  A    between atoms: _178  and  _179
REMARK   61  A    between atoms: _178  and  _181
REMARK   62  A    between atoms: _181  and  _182
REMARK   63  A    between atoms: _185  and  _187
REMARK   64  A    between atoms: _187  and  _188
REMARK   65  A    between atoms: _187  and  _190
REMARK   66  A    between atoms: _190  and  _191
REMARK   67  A    between atoms: _192  and  ZN_416
REMARK   68  A    between atoms: _196  and  _198
REMARK   69  A    between atoms: _198  and  _199
REMARK   70  A    between atoms: _198  and  _201
REMARK   71  A    between atoms: _201  and  _202
REMARK   72  A    between atoms: _205  and  _207
REMARK   73  A    between atoms: _207  and  _208
REMARK   74  A    between atoms: _207  and  _210
REMARK   75  A    between atoms: _213  and  _215
REMARK   76  A    between atoms: _215  and  _216
REMARK   77  A    between atoms: _215  and  _218
REMARK   78  A    between atoms: _218  and  _219
REMARK   79  A    between atoms: _224  and  _226
REMARK   80  A    between atoms: _226  and  _227
REMARK   81  A    between atoms: _226  and  _229
REMARK   82  A    between atoms: _229  and  _230
REMARK   83  A    between atoms: _236  and  _238
REMARK   84  A    between atoms: _238  and  _239
REMARK   85  A    between atoms: _238  and  _241
REMARK   86  A    between atoms: _244  and  _246
REMARK   87  A    between atoms: _246  and  _247
REMARK   88  A    between atoms: _246  and  _249
REMARK   89  A    between atoms: _249  and  _250
REMARK   90  A    between atoms: _253  and  _255
REMARK   91  A    between atoms: _255  and  _256
REMARK   92  A    between atoms: _259  and  _261
REMARK   93  A    between atoms: _261  and  _262
REMARK   94  A    between atoms: _261  and  _264
REMARK   95  A    between atoms: _267  and  _269
REMARK   96  A    between atoms: _269  and  _270
REMARK   97  A    between atoms: _269  and  _272
REMARK   98  A    between atoms: _272  and  _273
REMARK   99  A    between atoms: _276  and  _278
REMARK  100  A    between atoms: _278  and  _279
REMARK  101  A    between atoms: _281  and  _283
REMARK  102  A    between atoms: _283  and  _284
REMARK  103  A    between atoms: _283  and  _286
REMARK  104  A    between atoms: _286  and  _287
REMARK  105  A    between atoms: _289  and  _291
REMARK  106  A    between atoms: _291  and  _292
REMARK  107  A    between atoms: _291  and  _294
REMARK  108  A    between atoms: _294  and  _295
REMARK  109  A    between atoms: _298  and  _300
REMARK  110  A    between atoms: _300  and  _301
REMARK  111  A    between atoms: _300  and  _303
REMARK  112  A    between atoms: _303  and  _304
REMARK  113  A    between atoms: _307  and  _309
REMARK  114  A    between atoms: _309  and  _310
REMARK  115  A    between atoms: _309  and  _312
REMARK  116  A    between atoms: _312  and  _313
REMARK  117  A    between atoms: _317  and  _318
REMARK  118  A    between atoms: _324  and  _325
REMARK  119  A    between atoms: _330  and  _332
REMARK  120  A    between atoms: _332  and  _333
REMARK  121  A    between atoms: _332  and  _335
REMARK  122  A    between atoms: _335  and  _336
REMARK  123  A    between atoms: _339  and  _341
REMARK  124  A    between atoms: _341  and  _342
REMARK  125  A    between atoms: _341  and  _344
REMARK  126  A    between atoms: _344  and  _345
REMARK  127  A    between atoms: _348  and  _350
REMARK  128  A    between atoms: _350  and  _351
REMARK  129  A    between atoms: _350  and  _353
REMARK  130  A    between atoms: _355  and  _357
REMARK  131  A    between atoms: _357  and  _358
REMARK  132  A    between atoms: _357  and  _360
REMARK  133  A    between atoms: _363  and  _365
REMARK  134  A    between atoms: _365  and  _366
REMARK  135  A    between atoms: _365  and  _368
REMARK  136  A    between atoms: _368  and  _369
REMARK  137  A    between atoms: _372  and  _374
REMARK  138  A    between atoms: _374  and  _375
REMARK  139  A    between atoms: _374  and  _377
REMARK  140  A    between atoms: _377  and  _378
REMARK  141  A    between atoms: _388  and  _390
REMARK  142  A    between atoms: _390  and  _391
REMARK  143  A    between atoms: _390  and  _393
REMARK  144  A    between atoms: _393  and  _394
REMARK  145  A    between atoms: _399  and  _401
REMARK  146  A    between atoms: _401  and  _402
REMARK  147  A    between atoms: _401  and  _404
REMARK  148  A    between atoms: _404  and  _405
REMARK  149  A    between atoms: _405  and  _406
REMARK  150  A    between atoms: _406  and  _407
REMARK                            x       y       z     vdW  Elec       q    Type
REMARK                         _______ _______ _______ _____ _____    ______ ____
ROOT
ATOM      1  CB  ASN A   1      12.794   2.544   6.835  0.00  0.00    +0.110 C 
ENDROOT
BRANCH   1   2
ATOM      2  CG  ASN A   1      13.916   2.306   7.802  0.00  0.00    +0.221 C 
ATOM      3  OD1 ASN A   1      13.976   1.243   8.524  0.00  0.00    -0.275 OA
ATOM      4  ND2 ASN A   1      14.893   3.221   7.801  0.00  0.00    -0.329 N 
ATOM      5 HD21 ASN A   1      15.734   3.084   8.397  0.00  0.00    +0.145 HD
ATOM      6 HD22 ASN A   1      14.811   4.069   7.204  0.00  0.00    +0.145 HD
ENDBRANCH   1   2
BRANCH   1   7
ATOM      7  CA  ASN A   1      11.975   1.263   6.563  0.00  0.00    +0.142 C 
BRANCH   7   8
ATOM      8  N   ASN A   1      12.718   0.295   5.787  0.00  0.00    -0.239 NA
ATOM      9  H   ASN A   1      13.182   0.598   4.907  0.00  0.00    +0.142 HD
ENDBRANCH   7   8
BRANCH   7  10
ATOM     10  C   ASN A   1      10.767   1.658   5.743  0.00  0.00    +0.225 C 
ATOM     11  O   ASN A   1      10.929   2.066   4.642  0.00  0.00    -0.287 OA
ENDBRANCH   7  10
ENDBRANCH   1   7
TORSDOF 4
REMARK  Name = ../refined-set-2016/4q83/4q83_pocket.pdb
REMARK  150 active torsions:
REMARK  status: ('A' for Active; 'I' for Inactive)
REMARK    1  A    between atoms: _1  and  _3
REMARK    2  A    between atoms: _3  and  _4
REMARK    3  A    between atoms: _3  and  _6
REMARK    4  A    between atoms: _6  and  _7
REMARK    5  A    between atoms: _17  and  _19
REMARK    6  A    between atoms: _19  and  _20
REMARK    7  A    between atoms: _19  and  _22
REMARK    8  A    between atoms: _22  and  _23
REMARK    9  A    between atoms: _28  and  _29
REMARK   10  A    between atoms: _31  and  _33
REMARK   11  A    between atoms: _33  and  _34
REMARK   12  A    between atoms: _33  and  _36
REMARK   13  A    between atoms: _36  and  _37
REMARK   14  A    between atoms: _39  and  _41
REMARK   15  A    between atoms: _41  and  _42
REMARK   16  A    between atoms: _41  and  _44
REMARK   17  A    between atoms: _44  and  _45
REMARK   18  A    between atoms: _50  and  _52
REMARK   19  A    between atoms: _52  and  _53
REMARK   20  A    between atoms: _52  and  _55
REMARK   21  A    between atoms: _55  and  _56
REMARK   22  A    between atoms: _61  and  _63
REMARK   23  A    between atoms: _63  and  _64
REMARK   24  A    between atoms: _67  and  _69
REMARK   25  A    between atoms: _69  and  _70
REMARK   26  A    between atoms: _69  and  _72
REMARK   27  A    between atoms: _72  and  _73
REMARK   28  A    between atoms: _78  and  _80
REMARK   29  A    between atoms: _80  and  _81
REMARK   30  A    between atoms: _80  and  _83
REMARK   31  A    between atoms: _83  and  _84
REMARK   32  A    between atoms: _87  and  _89
REMARK   33  A    between atoms: _89  and  _90
REMARK   34  A    between atoms: _89  and  _92
REMARK   35  A    between atoms: _92  and  _93
REMARK   36  A    between atoms: _93  and  _94
REMARK   37  A    between atoms: _99  and  _101
REMARK   38  A    between atoms: _101  and  _102
REMARK   39  A    between atoms: _101  and  _104
REMARK   40  A    between atoms: _104  and  _105
REMARK   41  A    between atoms: _111  and  _113
REMARK   42  A    between atoms: _124  and  _127
REMARK   43  A    between atoms: _127  and  _128
REMARK   44  A    between atoms: _136  and  _137
REMARK   45  A    between atoms: _145  and  _147
REMARK   46  A    between atoms: _147  and  _148
REMARK   47  A    between atoms: _147  and  _150
REMARK   48  A    between atoms: _150  and  _151
REMARK   49  A    between atoms: _151  and  _152
REMARK   50  A    between atoms: _155  and  _157
REMARK   51  A    between atoms: _157  and  _158
REMARK   52  A    between atoms: _157  and  _160
REMARK   53  A    between atoms: _160  and  _161
REMARK   54  A    between atoms: _166  and  _168
REMARK   55  A    between atoms: _168  and  _169
REMARK   56  A    between atoms: _168  and  _171
REMARK   57  A    between atoms: _171  and  _172
REMARK   58  A    between atoms: _172  and  _173
REMARK   59  A    between atoms: _176  and  _178
REMARK   60  A    between atoms: _178  and  _179
REMARK   61  A    between atoms: _178  and  _181
REMARK   62  A    between atoms: _181  and  _182
REMARK   63  A    between atoms: _185  and  _187
REMARK   64  A    between atoms: _187  and  _188
REMARK   65  A    between atoms: _187  and  _190
REMARK   66  A    between atoms: _190  and  _191
REMARK   67  A    between atoms: _192  and  ZN_416
REMARK   68  A    between atoms: _196  and  _198
REMARK   69  A    between atoms: _198  and  _199
REMARK   70  A    between atoms: _198  and  _201
REMARK   71  A    between atoms: _201  and  _202
REMARK   72  A    between atoms: _205  and  _207
REMARK   73  A    between atoms: _207  and  _208
REMARK   74  A    between atoms: _207  and  _210
REMARK   75  A    between atoms: _213  and  _215
REMARK   76  A    between atoms: _215  and  _216
REMARK   77  A    between atoms: _215  and  _218
REMARK   78  A    between atoms: _218  and  _219
REMARK   79  A    between atoms: _224  and  _226
REMARK   80  A    between atoms: _226  and  _227
REMARK   81  A    between atoms: _226  and  _229
REMARK   82  A    between atoms: _229  and  _230
REMARK   83  A    between atoms: _236  and  _238
REMARK   84  A    between atoms: _238  and  _239
REMARK   85  A    between atoms: _238  and  _241
REMARK   86  A    between atoms: _244  and  _246
REMARK   87  A    between atoms: _246  and  _247
REMARK   88  A    between atoms: _246  and  _249
REMARK   89  A    between atoms: _249  and  _250
REMARK   90  A    between atoms: _253  and  _255
REMARK   91  A    between atoms: _255  and  _256
REMARK   92  A    between atoms: _259  and  _261
REMARK   93  A    between atoms: _261  and  _262
REMARK   94  A    between atoms: _261  and  _264
REMARK   95  A    between atoms: _267  and  _269
REMARK   96  A    between atoms: _269  and  _270
REMARK   97  A    between atoms: _269  and  _272
REMARK   98  A    between atoms: _272  and  _273
REMARK   99  A    between atoms: _276  and  _278
REMARK  100  A    between atoms: _278  and  _279
REMARK  101  A    between atoms: _281  and  _283
REMARK  102  A    between atoms: _283  and  _284
REMARK  103  A    between atoms: _283  and  _286
REMARK  104  A    between atoms: _286  and  _287
REMARK  105  A    between atoms: _289  and  _291
REMARK  106  A    between atoms: _291  and  _292
REMARK  107  A    between atoms: _291  and  _294
REMARK  108  A    between atoms: _294  and  _295
REMARK  109  A    between atoms: _298  and  _300
REMARK  110  A    between atoms: _300  and  _301
REMARK  111  A    between atoms: _300  and  _303
REMARK  112  A    between atoms: _303  and  _304
REMARK  113  A    between atoms: _307  and  _309
REMARK  114  A    between atoms: _309  and  _310
REMARK  115  A    between atoms: _309  and  _312
REMARK  116  A    between atoms: _312  and  _313
REMARK  117  A    between atoms: _317  and  _318
REMARK  118  A    between atoms: _324  and  _325
REMARK  119  A    between atoms: _330  and  _332
REMARK  120  A    between atoms: _332  and  _333
REMARK  121  A    between atoms: _332  and  _335
REMARK  122  A    between atoms: _335  and  _336
REMARK  123  A    between atoms: _339  and  _341
REMARK  124  A    between atoms: _341  and  _342
REMARK  125  A    between atoms: _341  and  _344
REMARK  126  A    between atoms: _344  and  _345
REMARK  127  A    between atoms: _348  and  _350
REMARK  128  A    between atoms: _350  and  _351
REMARK  129  A    between atoms: _350  and  _353
REMARK  130  A    between atoms: _355  and  _357
REMARK  131  A    between atoms: _357  and  _358
REMARK  132  A    between atoms: _357  and  _360
REMARK  133  A    between atoms: _363  and  _365
REMARK  134  A    between atoms: _365  and  _366
REMARK  135  A    between atoms: _365  and  _368
REMARK  136  A    between atoms: _368  and  _369
REMARK  137  A    between atoms: _372  and  _374
REMARK  138  A    between atoms: _374  and  _375
REMARK  139  A    between atoms: _374  and  _377
REMARK  140  A    between atoms: _377  and  _378
REMARK  141  A    between atoms: _388  and  _390
REMARK  142  A    between atoms: _390  and  _391
REMARK  143  A    between atoms: _390  and  _393
REMARK  144  A    between atoms: _393  and  _394
REMARK  145  A    between atoms: _399  and  _401
REMARK  146  A    between atoms: _401  and  _402
REMARK  147  A    between atoms: _401  and  _404
REMARK  148  A    between atoms: _404  and  _405
REMARK  149  A    between atoms: _405  and  _406
REMARK  150  A    between atoms: _406  and  _407
REMARK                            x       y       z     vdW  Elec       q    Type
REMARK                         _______ _______ _______ _____ _____    ______ ____
ROOT
ATOM      1  C   UNK A   4      10.821  -1.562  10.333  0.00  0.00    +0.000 C 
ATOM      2  C   UNK A   4      10.709  -2.844  11.167  0.00  0.00    +0.000 C 
ATOM      3  O   UNK A   4      10.057  -2.892  12.200  0.00  0.00    +0.000 OA
ATOM      4  N   VAL A   5      11.426  -3.891  10.725  0.00  0.00    +0.000 N 
ATOM      5  CA  VAL A   5      11.446  -5.148  11.414  0.00  0.00    +0.000 C 
ATOM      6  C   VAL A   5      12.909  -5.592  11.611  0.00  0.00    +0.000 C 
ATOM      7  N   UNK A   6      13.082  -6.525  12.556  0.00  0.00    +0.000 N 
ATOM      8  H   UNK A   6      12.300  -6.711  13.216  0.00  0.00    +0.000 HD
ATOM      9  C   UNK A   6      14.338  -7.309  12.709  0.00  0.00    +0.000 C 
ATOM     10  C   UNK A   6      14.979  -7.069  14.086  0.00  0.00    +0.000 C 
ATOM     11  C   UNK A   6      15.240  -5.612  14.391  0.00  0.00    +0.000 A 
ATOM     12  C   UNK A   6      14.419  -4.583  14.741  0.00  0.00    +0.000 A 
ATOM     13  N   UNK A   6      15.199  -3.443  14.867  0.00  0.00    +0.000 N 
ATOM     14 ZN   UNK A   6      14.537  -1.571  15.418  0.00  0.00    +0.000 Zn
ATOM     15  N   UNK A   4      13.647  -0.867  13.689  0.00  0.00    +0.000 N 
ATOM     16  C   UNK A   4      13.117   0.357  13.550  0.00  0.00    +0.000 A 
ATOM     17  N   UNK A   4      12.615   0.473  12.313  0.00  0.00    +0.000 NA
ATOM     18  C   UNK A   4      12.826  -0.738  11.654  0.00  0.00    +0.000 A 
ATOM     19  C   UNK A   4      13.402  -1.571  12.541  0.00  0.00    +0.000 A 
ATOM     20  C   UNK A   6      16.458  -3.781  14.589  0.00  0.00    +0.000 A 
ATOM     21  N   UNK A   6      16.503  -5.074  14.205  0.00  0.00    +0.000 NA
ATOM     22  O   VAL A   5      13.805  -5.175  10.875  0.00  0.00    +0.000 OA
ATOM     23  H   VAL A   5      11.985  -3.786   9.854  0.00  0.00    +0.000 HD
ATOM     24  C   UNK A   4      12.287  -1.030  10.295  0.00  0.00    +0.000 C 
ENDROOT
BRANCH  14  25
ATOM     25  N   UNK A   6      12.904  -2.465  16.612  0.00  0.00    +0.000 N 
ATOM     26  C   UNK A   6      13.217  -3.390  17.503  0.00  0.00    +0.000 A 
ATOM     27  N   UNK A   6      12.105  -3.799  18.106  0.00  0.00    +0.000 NA
ATOM     28  C   UNK A   6      11.037  -3.143  17.511  0.00  0.00    +0.000 A 
ATOM     29  C   UNK A   6      11.541  -2.268  16.609  0.00  0.00    +0.000 A 
BRANCH  29  30
ATOM     30  C   UNK A   6      10.851  -1.278  15.703  0.00  0.00    +0.000 C 
BRANCH  30  31
ATOM     31  C   UNK A   6       9.342  -1.587  15.629  0.00  0.00    +0.000 C 
BRANCH  31  32
ATOM     32  C   UNK A   6       8.676  -0.457  14.913  0.00  0.00    +0.000 C 
ATOM     33  N   UNK A   4       7.685   0.112  15.616  0.00  0.00    +0.000 N 
ATOM     34  H   UNK A   4       7.372  -0.327  16.506  0.00  0.00    +0.000 HD
ATOM     35  O   UNK A   6       9.080   0.011  13.804  0.00  0.00    +0.000 OA
BRANCH  33  36
ATOM     36  C   UNK A   4       7.005   1.398  15.131  0.00  0.00    +0.000 C 
BRANCH  36  37
ATOM     37  C   UNK A   4       7.572   2.571  15.893  0.00  0.00    +0.000 C 
ATOM     38  O   UNK A   4       7.505   2.608  17.143  0.00  0.00    +0.000 OA
ATOM     39  N   VAL A   5       8.249   3.418  15.136  0.00  0.00    +0.000 N 
ATOM     40  H   VAL A   5       8.178   3.353  14.100  0.00  0.00    +0.000 HD
BRANCH  39  41
ATOM     41  CA  VAL A   5       9.130   4.486  15.766  0.00  0.00    +0.000 C 
BRANCH  41  42
ATOM     42  C   VAL A   5       8.426   5.831  15.835  0.00  0.00    +0.000 C 
ATOM     43  N   UNK A   6       8.450   6.412  17.043  0.00  0.00    +0.000 N 
ATOM     44  H   UNK A   6       8.950   5.960  17.835  0.00  0.00    +0.000 HD
ATOM     45  O   VAL A   5       7.928   6.310  14.832  0.00  0.00    +0.000 OA
BRANCH  43  46
ATOM     46  C   UNK A   6       7.764   7.691  17.234  0.00  0.00    +0.000 C 
BRANCH  46  47
ATOM     47  C   UNK A   6       8.624   8.631  17.971  0.00  0.00    +0.000 C 
ATOM     48  O   UNK A   6       9.339   8.229  18.871  0.00  0.00    +0.000 OA
ENDBRANCH  46  47
BRANCH  46  49
ATOM     49  C   UNK A   6       6.458   7.506  18.047  0.00  0.00    +0.000 C 
BRANCH  49  50
ATOM     50  C   UNK A   6       5.559   6.395  17.613  0.00  0.00    +0.000 A 
ATOM     51  N   UNK A   6       5.871   5.063  17.891  0.00  0.00    +0.000 NA
ATOM     52  C   UNK A   6       4.886   4.281  17.484  0.00  0.00    +0.000 A 
ATOM     53  N   UNK A   6       3.959   5.043  16.901  0.00  0.00    +0.000 NA
ATOM     54  C   UNK A   6       4.334   6.376  16.988  0.00  0.00    +0.000 A 
ENDBRANCH  49  50
ENDBRANCH  46  49
ENDBRANCH  43  46
ENDBRANCH  41  42
BRANCH  41  55
ATOM     55  CB  VAL A   5      10.451   4.590  14.993  0.00  0.00    +0.000 C 
ATOM     56  CG2 VAL A   5      11.415   5.631  15.665  0.00  0.00    +0.000 C 
ATOM     57  CG1 VAL A   5      11.109   3.251  14.780  0.00  0.00    +0.000 C 
ENDBRANCH  41  55
ENDBRANCH  39  41
ENDBRANCH  36  37
BRANCH  36  58
ATOM     58  C   UNK A   4       5.494   1.344  15.341  0.00  0.00    +0.000 C 
BRANCH  58  59
ATOM     59  C   UNK A   4       4.828   0.214  14.474  0.00  0.00    +0.000 C 
ATOM     60  C   UNK A   4       3.910  -0.692  15.291  0.00  0.00    +0.000 C 
ATOM     61  C   UNK A   4       3.970   0.903  13.364  0.00  0.00    +0.000 C 
ENDBRANCH  58  59
ENDBRANCH  36  58
ENDBRANCH  33  36
ENDBRANCH  31  32
BRANCH  31  62
ATOM     62  N   UNK A   6       9.104  -2.788  14.843  0.00  0.00    +0.000 N 
ATOM     63  C   LEU A   2       8.465  -3.837  15.356  0.00  0.00    +0.000 C 
ATOM     64  O   LEU A   2       8.062  -3.894  16.526  0.00  0.00    +0.000 OA
ATOM     65  H   UNK A   6       9.440  -2.828  13.860  0.00  0.00    +0.000 HD
BRANCH  63  66
ATOM     66  CA  LEU A   2       8.227  -4.989  14.354  0.00  0.00    +0.000 C 
BRANCH  66  67
ATOM     67  N   LEU A   2       8.633  -6.235  14.987  0.00  0.00    +0.000 N 
ATOM     68  H   LEU A   2       7.911  -6.750  15.530  0.00  0.00    +0.000 HD
ATOM     69  C   GLU A   1       9.831  -6.763  14.931  0.00  0.00    +0.000 C 
ATOM     70  O   GLU A   1      10.764  -6.304  14.250  0.00  0.00    +0.000 OA
BRANCH  69  71
ATOM     71  CA  GLU A   1      10.008  -8.077  15.757  0.00  0.00    +0.000 C 
BRANCH  71  72
ATOM     72  N   GLU A   1      10.540  -9.131  14.885  0.00  0.00    +0.000 NA
ATOM     73  H   GLU A   1      11.180  -8.871  14.108  0.00  0.00    +0.000 HD
ENDBRANCH  71  72
BRANCH  71  74
ATOM     74  CB  GLU A   1      10.992  -7.865  16.923  0.00  0.00    +0.000 C 
BRANCH  74  75
ATOM     75  CG  GLU A   1      10.482  -6.893  17.976  0.00  0.00    +0.000 C 
BRANCH  75  76
ATOM     76  CD  GLU A   1      11.413  -6.808  19.174  0.00  0.00    +0.000 C 
ATOM     77  OE2 GLU A   1      11.477  -5.711  19.778  0.00  0.00    +0.000 OA
ATOM     78  OE1 GLU A   1      11.995  -7.825  19.510  0.00  0.00    +0.000 OA
ENDBRANCH  75  76
ENDBRANCH  74  75
ENDBRANCH  71  74
ENDBRANCH  69  71
ENDBRANCH  66  67
BRANCH  66  79
ATOM     79  CB  LEU A   2       6.693  -5.114  14.041  0.00  0.00    +0.000 C 
BRANCH  79  80
ATOM     80  CG  LEU A   2       6.001  -3.781  13.680  0.00  0.00    +0.000 C 
ATOM     81  CD2 LEU A   2       4.536  -4.086  13.353  0.00  0.00    +0.000 C 
ATOM     82  CD1 LEU A   2       6.591  -3.149  12.432  0.00  0.00    +0.000 C 
ENDBRANCH  79  80
ENDBRANCH  66  79
ENDBRANCH  63  66
ENDBRANCH  31  62
ENDBRANCH  30  31
ENDBRANCH  29  30
ENDBRANCH  14  25
BRANCH   1  84
ATOM     83  C   UNK A   3       9.381   0.424  10.246  0.00  0.00    +0.000 C 
ATOM     84  N   UNK A   4       9.926  -0.587  10.942  0.00  0.00    +0.000 N 
ATOM     85  H   UNK A   4       9.701  -0.677  11.953  0.00  0.00    +0.000 HD
ATOM     86  O   UNK A   3       9.654   0.594   9.059  0.00  0.00    +0.000 OA
BRANCH  83  87
ATOM     87  C   UNK A   3       8.421   1.297  11.046  0.00  0.00    +0.000 C 
BRANCH  87  90
ATOM     88  C   LEU A   2       8.497   3.688  11.110  0.00  0.00    +0.000 C 
ATOM     89  O   LEU A   2       8.383   3.691  12.367  0.00  0.00    +0.000 OA
ATOM     90  N   UNK A   3       8.312   2.611  10.371  0.00  0.00    +0.000 N 
ATOM     91  H   UNK A   3       8.098   2.682   9.356  0.00  0.00    +0.000 HD
BRANCH  88  92
ATOM     92  CA  LEU A   2       8.732   4.972  10.387  0.00  0.00    +0.000 C 
BRANCH  92  94
ATOM     93  C   GLU A   1       8.320   7.314  10.674  0.00  0.00    +0.000 C 
ATOM     94  N   LEU A   2       8.476   6.103  11.234  0.00  0.00    +0.000 N 
ATOM     95  H   LEU A   2       8.412   5.986  12.265  0.00  0.00    +0.000 HD
ATOM     96  O   GLU A   1       8.391   7.519   9.458  0.00  0.00    +0.000 OA
BRANCH  93  97
ATOM     97  CA  GLU A   1       7.988   8.490  11.626  0.00  0.00    +0.000 C 
BRANCH  97  98
ATOM     98  CB  GLU A   1       9.314   9.193  12.134  0.00  0.00    +0.000 C 
ATOM     99  CG2 GLU A   1      10.037   8.428  13.256  0.00  0.00    +0.000 C 
BRANCH  98 100
ATOM    100  CG1 GLU A   1      10.251   9.467  10.948  0.00  0.00    +0.000 C 
ATOM    101  CD1 GLU A   1      11.476  10.392  11.318  0.00  0.00    +0.000 C 
ENDBRANCH  98 100
ENDBRANCH  97  98
BRANCH  97 102
ATOM    102  N   GLU A   1       7.098   8.134  12.721  0.00  0.00    +0.000 NA
ATOM    103  H   GLU A   1       7.436   7.464  13.441  0.00  0.00    +0.000 HD
ENDBRANCH  97 102
ENDBRANCH  93  97
ENDBRANCH  92  94
BRANCH  92 104
ATOM    104  CB  LEU A   2      10.203   5.013   9.867  0.00  0.00    +0.000 C 
BRANCH 104 105
ATOM    105  CG  LEU A   2      11.269   5.048  10.994  0.00  0.00    +0.000 C 
BRANCH 105 106
ATOM    106  CD  LEU A   2      11.996   3.720  11.139  0.00  0.00    +0.000 C 
ATOM    107  NE2 LEU A   2      13.322   3.794  11.198  0.00  0.00    +0.000 N 
ATOM    108 HE21 LEU A   2      13.887   2.926  11.294  0.00  0.00    +0.000 HD
ATOM    109 HE22 LEU A   2      13.794   4.719  11.148  0.00  0.00    +0.000 HD
ATOM    110  OE1 LEU A   2      11.413   2.656  11.194  0.00  0.00    +0.000 OA
ENDBRANCH 105 106
ENDBRANCH 104 105
ENDBRANCH  92 104
ENDBRANCH  88  92
ENDBRANCH  87  90
BRANCH  87 111
ATOM    111  C   UNK A   3       7.088   0.524  11.297  0.00  0.00    +0.000 C 
BRANCH 111 112
ATOM    112  C   UNK A   3       6.353   0.075  10.052  0.00  0.00    +0.000 A 
ATOM    113  C   UNK A   3       5.202   0.772   9.622  0.00  0.00    +0.000 A 
ATOM    114  C   UNK A   3       4.501   0.335   8.499  0.00  0.00    +0.000 A 
ATOM    115  C   UNK A   3       4.911  -0.844   7.814  0.00  0.00    +0.000 A 
ATOM    116  C   UNK A   3       6.068  -1.530   8.227  0.00  0.00    +0.000 A 
ATOM    117  C   UNK A   3       6.784  -1.060   9.349  0.00  0.00    +0.000 A 
ENDBRANCH 111 112
ENDBRANCH  87 111
ENDBRANCH  83  87
ENDBRANCH   1  84
BRANCH   9 118
ATOM    118  C   UNK A   6      13.906  -8.772  12.621  0.00  0.00    +0.000 C 
ATOM    119  O   UNK A   6      12.784  -9.085  13.127  0.00  0.00    +0.000 OA
ENDBRANCH   9 118
BRANCH   5 120
ATOM    120  CB  VAL A   5      10.739  -6.239  10.571  0.00  0.00    +0.000 C 
BRANCH 120 121
ATOM    121  CG  VAL A   5       9.300  -5.963  10.255  0.00  0.00    +0.000 A 
ATOM    122  CD2 VAL A   5       8.297  -6.637  10.947  0.00  0.00    +0.000 A 
ATOM    123  CE2 VAL A   5       6.958  -6.471  10.594  0.00  0.00    +0.000 A 
ATOM    124  CZ  VAL A   5       6.637  -5.551   9.517  0.00  0.00    +0.000 A 
ATOM    125  CE1 VAL A   5       7.595  -4.898   8.792  0.00  0.00    +0.000 A 
ATOM    126  CD1 VAL A   5       8.967  -5.098   9.130  0.00  0.00    +0.000 A 
ENDBRANCH 120 121
ENDBRANCH   5 120
TORSDOF 42
REMARK  Name = ../refined-set-2016/4q83/4q83_pocket.pdb
REMARK  150 active torsions:
REMARK  status: ('A' for Active; 'I' for Inactive)
REMARK    1  A    between atoms: _1  and  _3
REMARK    2  A    between atoms: _3  and  _4
REMARK    3  A    between atoms: _3  and  _6
REMARK    4  A    between atoms: _6  and  _7
REMARK    5  A    between atoms: _17  and  _19
REMARK    6  A    between atoms: _19  and  _20
REMARK    7  A    between atoms: _19  and  _22
REMARK    8  A    between atoms: _22  and  _23
REMARK    9  A    between atoms: _28  and  _29
REMARK   10  A    between atoms: _31  and  _33
REMARK   11  A    between atoms: _33  and  _34
REMARK   12  A    between atoms: _33  and  _36
REMARK   13  A    between atoms: _36  and  _37
REMARK   14  A    between atoms: _39  and  _41
REMARK   15  A    between atoms: _41  and  _42
REMARK   16  A    between atoms: _41  and  _44
REMARK   17  A    between atoms: _44  and  _45
REMARK   18  A    between atoms: _50  and  _52
REMARK   19  A    between atoms: _52  and  _53
REMARK   20  A    between atoms: _52  and  _55
REMARK   21  A    between atoms: _55  and  _56
REMARK   22  A    between atoms: _61  and  _63
REMARK   23  A    between atoms: _63  and  _64
REMARK   24  A    between atoms: _67  and  _69
REMARK   25  A    between atoms: _69  and  _70
REMARK   26  A    between atoms: _69  and  _72
REMARK   27  A    between atoms: _72  and  _73
REMARK   28  A    between atoms: _78  and  _80
REMARK   29  A    between atoms: _80  and  _81
REMARK   30  A    between atoms: _80  and  _83
REMARK   31  A    between atoms: _83  and  _84
REMARK   32  A    between atoms: _87  and  _89
REMARK   33  A    between atoms: _89  and  _90
REMARK   34  A    between atoms: _89  and  _92
REMARK   35  A    between atoms: _92  and  _93
REMARK   36  A    between atoms: _93  and  _94
REMARK   37  A    between atoms: _99  and  _101
REMARK   38  A    between atoms: _101  and  _102
REMARK   39  A    between atoms: _101  and  _104
REMARK   40  A    between atoms: _104  and  _105
REMARK   41  A    between atoms: _111  and  _113
REMARK   42  A    between atoms: _124  and  _127
REMARK   43  A    between atoms: _127  and  _128
REMARK   44  A    between atoms: _136  and  _137
REMARK   45  A    between atoms: _145  and  _147
REMARK   46  A    between atoms: _147  and  _148
REMARK   47  A    between atoms: _147  and  _150
REMARK   48  A    between atoms: _150  and  _151
REMARK   49  A    between atoms: _151  and  _152
REMARK   50  A    between atoms: _155  and  _157
REMARK   51  A    between atoms: _157  and  _158
REMARK   52  A    between atoms: _157  and  _160
REMARK   53  A    between atoms: _160  and  _161
REMARK   54  A    between atoms: _166  and  _168
REMARK   55  A    between atoms: _168  and  _169
REMARK   56  A    between atoms: _168  and  _171
REMARK   57  A    between atoms: _171  and  _172
REMARK   58  A    between atoms: _172  and  _173
REMARK   59  A    between atoms: _176  and  _178
REMARK   60  A    between atoms: _178  and  _179
REMARK   61  A    between atoms: _178  and  _181
REMARK   62  A    between atoms: _181  and  _182
REMARK   63  A    between atoms: _185  and  _187
REMARK   64  A    between atoms: _187  and  _188
REMARK   65  A    between atoms: _187  and  _190
REMARK   66  A    between atoms: _190  and  _191
REMARK   67  A    between atoms: _192  and  ZN_416
REMARK   68  A    between atoms: _196  and  _198
REMARK   69  A    between atoms: _198  and  _199
REMARK   70  A    between atoms: _198  and  _201
REMARK   71  A    between atoms: _201  and  _202
REMARK   72  A    between atoms: _205  and  _207
REMARK   73  A    between atoms: _207  and  _208
REMARK   74  A    between atoms: _207  and  _210
REMARK   75  A    between atoms: _213  and  _215
REMARK   76  A    between atoms: _215  and  _216
REMARK   77  A    between atoms: _215  and  _218
REMARK   78  A    between atoms: _218  and  _219
REMARK   79  A    between atoms: _224  and  _226
REMARK   80  A    between atoms: _226  and  _227
REMARK   81  A    between atoms: _226  and  _229
REMARK   82  A    between atoms: _229  and  _230
REMARK   83  A    between atoms: _236  and  _238
REMARK   84  A    between atoms: _238  and  _239
REMARK   85  A    between atoms: _238  and  _241
REMARK   86  A    between atoms: _244  and  _246
REMARK   87  A    between atoms: _246  and  _247
REMARK   88  A    between atoms: _246  and  _249
REMARK   89  A    between atoms: _249  and  _250
REMARK   90  A    between atoms: _253  and  _255
REMARK   91  A    between atoms: _255  and  _256
REMARK   92  A    between atoms: _259  and  _261
REMARK   93  A    between atoms: _261  and  _262
REMARK   94  A    between atoms: _261  and  _264
REMARK   95  A    between atoms: _267  and  _269
REMARK   96  A    between atoms: _269  and  _270
REMARK   97  A    between atoms: _269  and  _272
REMARK   98  A    between atoms: _272  and  _273
REMARK   99  A    between atoms: _276  and  _278
REMARK  100  A    between atoms: _278  and  _279
REMARK  101  A    between atoms: _281  and  _283
REMARK  102  A    between atoms: _283  and  _284
REMARK  103  A    between atoms: _283  and  _286
REMARK  104  A    between atoms: _286  and  _287
REMARK  105  A    between atoms: _289  and  _291
REMARK  106  A    between atoms: _291  and  _292
REMARK  107  A    between atoms: _291  and  _294
REMARK  108  A    between atoms: _294  and  _295
REMARK  109  A    between atoms: _298  and  _300
REMARK  110  A    between atoms: _300  and  _301
REMARK  111  A    between atoms: _300  and  _303
REMARK  112  A    between atoms: _303  and  _304
REMARK  113  A    between atoms: _307  and  _309
REMARK  114  A    between atoms: _309  and  _310
REMARK  115  A    between atoms: _309  and  _312
REMARK  116  A    between atoms: _312  and  _313
REMARK  117  A    between atoms: _317  and  _318
REMARK  118  A    between atoms: _324  and  _325
REMARK  119  A    between atoms: _330  and  _332
REMARK  120  A    between atoms: _332  and  _333
REMARK  121  A    between atoms: _332  and  _335
REMARK  122  A    between atoms: _335  and  _336
REMARK  123  A    between atoms: _339  and  _341
REMARK  124  A    between atoms: _341  and  _342
REMARK  125  A    between atoms: _341  and  _344
REMARK  126  A    between atoms: _344  and  _345
REMARK  127  A    between atoms: _348  and  _350
REMARK  128  A    between atoms: _350  and  _351
REMARK  129  A    between atoms: _350  and  _353
REMARK  130  A    between atoms: _355  and  _357
REMARK  131  A    between atoms: _357  and  _358
REMARK  132  A    between atoms: _357  and  _360
REMARK  133  A    between atoms: _363  and  _365
REMARK  134  A    between atoms: _365  and  _366
REMARK  135  A    between atoms: _365  and  _368
REMARK  136  A    between atoms: _368  and  _369
REMARK  137  A    between atoms: _372  and  _374
REMARK  138  A    between atoms: _374  and  _375
REMARK  139  A    between atoms: _374  and  _377
REMARK  140  A    between atoms: _377  and  _378
REMARK  141  A    between atoms: _388  and  _390
REMARK  142  A    between atoms: _390  and  _391
REMARK  143  A    between atoms: _390  and  _393
REMARK  144  A    between atoms: _393  and  _394
REMARK  145  A    between atoms: _399  and  _401
REMARK  146  A    between atoms: _401  and  _402
REMARK  147  A    between atoms: _401  and  _404
REMARK  148  A    between atoms: _404  and  _405
REMARK  149  A    between atoms: _405  and  _406
REMARK  150  A    between atoms: _406  and  _407
REMARK                            x       y       z     vdW  Elec       q    Type
REMARK                         _______ _______ _______ _____ _____    ______ ____
ROOT
ATOM      1  C   GLU A   1      15.125  -8.655  21.119  0.00  0.00    +0.238 C 
ATOM      2  O   GLU A   1      15.933  -9.250  21.911  0.00  0.00    -0.274 OA
ATOM      3  N   HIS A   2      13.934  -8.173  21.530  0.00  0.00    -0.298 N 
ATOM      4  H   HIS A   2      13.356  -7.557  20.923  0.00  0.00    +0.150 HD
ENDROOT
BRANCH   1   5
ATOM      5  CA  GLU A   1      15.487  -8.540  19.668  0.00  0.00    +0.145 C 
BRANCH   5   6
ATOM      6  N   GLU A   1      14.428  -9.166  18.855  0.00  0.00    -0.238 NA
ATOM      7  H   GLU A   1      13.563  -8.642  18.613  0.00  0.00    +0.142 HD
ENDBRANCH   5   6
BRANCH   5   8
ATOM      8  CB  GLU A   1      15.481  -7.054  19.251  0.00  0.00    +0.038 C 
BRANCH   8   9
ATOM      9  CG  GLU A   1      16.102  -7.004  17.818  0.00  0.00    +0.116 C 
BRANCH   9  10
ATOM     10  CD  GLU A   1      16.715  -5.656  17.474  0.00  0.00    +0.365 C 
ATOM     11  OE2 GLU A   1      16.061  -4.590  17.658  0.00  0.00    -0.246 OA
ATOM     12  OE1 GLU A   1      17.888  -5.649  17.033  0.00  0.00    -0.246 OA
ENDBRANCH   9  10
ENDBRANCH   8   9
ENDBRANCH   5   8
ENDBRANCH   1   5
BRANCH   3  13
ATOM     13  CA  HIS A   2      13.496  -8.559  22.870  0.00  0.00    +0.143 C 
BRANCH  13  14
ATOM     14  C   HIS A   2      13.183 -10.009  22.886  0.00  0.00    +0.227 C 
ATOM     15  O   HIS A   2      12.825 -10.586  21.881  0.00  0.00    -0.286 OA
ENDBRANCH  13  14
BRANCH  13  16
ATOM     16  CB  HIS A   2      12.271  -7.705  23.247  0.00  0.00    +0.075 C 
BRANCH  16  17
ATOM     17  CG  HIS A   2      12.640  -6.244  23.351  0.00  0.00    +0.082 A 
ATOM     18  CD2 HIS A   2      13.104  -5.549  24.428  0.00  0.00    +0.115 A 
ATOM     19  NE2 HIS A   2      13.350  -4.259  24.027  0.00  0.00    -0.221 NA
ATOM     20  CE1 HIS A   2      13.002  -4.140  22.753  0.00  0.00    +0.199 A 
ATOM     21  ND1 HIS A   2      12.573  -5.339  22.325  0.00  0.00    -0.227 NA
ENDBRANCH  16  17
ENDBRANCH  13  16
ENDBRANCH   3  13
TORSDOF 9
REMARK  Name = ../refined-set-2016/4q83/4q83_pocket.pdb
REMARK  150 active torsions:
REMARK  status: ('A' for Active; 'I' for Inactive)
REMARK    1  A    between atoms: _1  and  _3
REMARK    2  A    between atoms: _3  and  _4
REMARK    3  A    between atoms: _3  and  _6
REMARK    4  A    between atoms: _6  and  _7
REMARK    5  A    between atoms: _17  and  _19
REMARK    6  A    between atoms: _19  and  _20
REMARK    7  A    between atoms: _19  and  _22
REMARK    8  A    between atoms: _22  and  _23
REMARK    9  A    between atoms: _28  and  _29
REMARK   10  A    between atoms: _31  and  _33
REMARK   11  A    between atoms: _33  and  _34
REMARK   12  A    between atoms: _33  and  _36
REMARK   13  A    between atoms: _36  and  _37
REMARK   14  A    between atoms: _39  and  _41
REMARK   15  A    between atoms: _41  and  _42
REMARK   16  A    between atoms: _41  and  _44
REMARK   17  A    between atoms: _44  and  _45
REMARK   18  A    between atoms: _50  and  _52
REMARK   19  A    between atoms: _52  and  _53
REMARK   20  A    between atoms: _52  and  _55
REMARK   21  A    between atoms: _55  and  _56
REMARK   22  A    between atoms: _61  and  _63
REMARK   23  A    between atoms: _63  and  _64
REMARK   24  A    between atoms: _67  and  _69
REMARK   25  A    between atoms: _69  and  _70
REMARK   26  A    between atoms: _69  and  _72
REMARK   27  A    between atoms: _72  and  _73
REMARK   28  A    between atoms: _78  and  _80
REMARK   29  A    between atoms: _80  and  _81
REMARK   30  A    between atoms: _80  and  _83
REMARK   31  A    between atoms: _83  and  _84
REMARK   32  A    between atoms: _87  and  _89
REMARK   33  A    between atoms: _89  and  _90
REMARK   34  A    between atoms: _89  and  _92
REMARK   35  A    between atoms: _92  and  _93
REMARK   36  A    between atoms: _93  and  _94
REMARK   37  A    between atoms: _99  and  _101
REMARK   38  A    between atoms: _101  and  _102
REMARK   39  A    between atoms: _101  and  _104
REMARK   40  A    between atoms: _104  and  _105
REMARK   41  A    between atoms: _111  and  _113
REMARK   42  A    between atoms: _124  and  _127
REMARK   43  A    between atoms: _127  and  _128
REMARK   44  A    between atoms: _136  and  _137
REMARK   45  A    between atoms: _145  and  _147
REMARK   46  A    between atoms: _147  and  _148
REMARK   47  A    between atoms: _147  and  _150
REMARK   48  A    between atoms: _150  and  _151
REMARK   49  A    between atoms: _151  and  _152
REMARK   50  A    between atoms: _155  and  _157
REMARK   51  A    between atoms: _157  and  _158
REMARK   52  A    between atoms: _157  and  _160
REMARK   53  A    between atoms: _160  and  _161
REMARK   54  A    between atoms: _166  and  _168
REMARK   55  A    between atoms: _168  and  _169
REMARK   56  A    between atoms: _168  and  _171
REMARK   57  A    between atoms: _171  and  _172
REMARK   58  A    between atoms: _172  and  _173
REMARK   59  A    between atoms: _176  and  _178
REMARK   60  A    between atoms: _178  and  _179
REMARK   61  A    between atoms: _178  and  _181
REMARK   62  A    between atoms: _181  and  _182
REMARK   63  A    between atoms: _185  and  _187
REMARK   64  A    between atoms: _187  and  _188
REMARK   65  A    between atoms: _187  and  _190
REMARK   66  A    between atoms: _190  and  _191
REMARK   67  A    between atoms: _192  and  ZN_416
REMARK   68  A    between atoms: _196  and  _198
REMARK   69  A    between atoms: _198  and  _199
REMARK   70  A    between atoms: _198  and  _201
REMARK   71  A    between atoms: _201  and  _202
REMARK   72  A    between atoms: _205  and  _207
REMARK   73  A    between atoms: _207  and  _208
REMARK   74  A    between atoms: _207  and  _210
REMARK   75  A    between atoms: _213  and  _215
REMARK   76  A    between atoms: _215  and  _216
REMARK   77  A    between atoms: _215  and  _218
REMARK   78  A    between atoms: _218  and  _219
REMARK   79  A    between atoms: _224  and  _226
REMARK   80  A    between atoms: _226  and  _227
REMARK   81  A    between atoms: _226  and  _229
REMARK   82  A    between atoms: _229  and  _230
REMARK   83  A    between atoms: _236  and  _238
REMARK   84  A    between atoms: _238  and  _239
REMARK   85  A    between atoms: _238  and  _241
REMARK   86  A    between atoms: _244  and  _246
REMARK   87  A    between atoms: _246  and  _247
REMARK   88  A    between atoms: _246  and  _249
REMARK   89  A    between atoms: _249  and  _250
REMARK   90  A    between atoms: _253  and  _255
REMARK   91  A    between atoms: _255  and  _256
REMARK   92  A    between atoms: _259  and  _261
REMARK   93  A    between atoms: _261  and  _262
REMARK   94  A    between atoms: _261  and  _264
REMARK   95  A    between atoms: _267  and  _269
REMARK   96  A    between atoms: _269  and  _270
REMARK   97  A    between atoms: _269  and  _272
REMARK   98  A    between atoms: _272  and  _273
REMARK   99  A    between atoms: _276  and  _278
REMARK  100  A    between atoms: _278  and  _279
REMARK  101  A    between atoms: _281  and  _283
REMARK  102  A    between atoms: _283  and  _284
REMARK  103  A    between atoms: _283  and  _286
REMARK  104  A    between atoms: _286  and  _287
REMARK  105  A    between atoms: _289  and  _291
REMARK  106  A    between atoms: _291  and  _292
REMARK  107  A    between atoms: _291  and  _294
REMARK  108  A    between atoms: _294  and  _295
REMARK  109  A    between atoms: _298  and  _300
REMARK  110  A    between atoms: _300  and  _301
REMARK  111  A    between atoms: _300  and  _303
REMARK  112  A    between atoms: _303  and  _304
REMARK  113  A    between atoms: _307  and  _309
REMARK  114  A    between atoms: _309  and  _310
REMARK  115  A    between atoms: _309  and  _312
REMARK  116  A    between atoms: _312  and  _313
REMARK  117  A    between atoms: _317  and  _318
REMARK  118  A    between atoms: _324  and  _325
REMARK  119  A    between atoms: _330  and  _332
REMARK  120  A    between atoms: _332  and  _333
REMARK  121  A    between atoms: _332  and  _335
REMARK  122  A    between atoms: _335  and  _336
REMARK  123  A    between atoms: _339  and  _341
REMARK  124  A    between atoms: _341  and  _342
REMARK  125  A    between atoms: _341  and  _344
REMARK  126  A    between atoms: _344  and  _345
REMARK  127  A    between atoms: _348  and  _350
REMARK  128  A    between atoms: _350  and  _351
REMARK  129  A    between atoms: _350  and  _353
REMARK  130  A    between atoms: _355  and  _357
REMARK  131  A    between atoms: _357  and  _358
REMARK  132  A    between atoms: _357  and  _360
REMARK  133  A    between atoms: _363  and  _365
REMARK  134  A    between atoms: _365  and  _366
REMARK  135  A    between atoms: _365  and  _368
REMARK  136  A    between atoms: _368  and  _369
REMARK  137  A    between atoms: _372  and  _374
REMARK  138  A    between atoms: _374  and  _375
REMARK  139  A    between atoms: _374  and  _377
REMARK  140  A    between atoms: _377  and  _378
REMARK  141  A    between atoms: _388  and  _390
REMARK  142  A    between atoms: _390  and  _391
REMARK  143  A    between atoms: _390  and  _393
REMARK  144  A    between atoms: _393  and  _394
REMARK  145  A    between atoms: _399  and  _401
REMARK  146  A    between atoms: _401  and  _402
REMARK  147  A    between atoms: _401  and  _404
REMARK  148  A    between atoms: _404  and  _405
REMARK  149  A    between atoms: _405  and  _406
REMARK  150  A    between atoms: _406  and  _407
REMARK                            x       y       z     vdW  Elec       q    Type
REMARK                         _______ _______ _______ _____ _____    ______ ____
ROOT
ATOM      1  CB  PHE A   1      13.350  12.723  13.942  0.00  0.00    +0.051 C 
ENDROOT
BRANCH   1   2
ATOM      2  CG  PHE A   1      13.977  11.365  14.226  0.00  0.00    -0.020 A 
ATOM      3  CD2 PHE A   1      13.227  10.362  14.803  0.00  0.00    -0.004 A 
ATOM      4  CE2 PHE A   1      13.817   9.140  15.077  0.00  0.00    -0.000 A 
ATOM      5  CZ  PHE A   1      15.191   8.939  14.828  0.00  0.00    -0.000 A 
ATOM      6  CE1 PHE A   1      15.933   9.907  14.258  0.00  0.00    -0.000 A 
ATOM      7  CD1 PHE A   1      15.357  11.149  14.017  0.00  0.00    -0.004 A 
ENDBRANCH   1   2
BRANCH   1   8
ATOM      8  CA  PHE A   1      13.397  13.699  15.137  0.00  0.00    +0.137 C 
BRANCH   8   9
ATOM      9  N   PHE A   1      12.756  14.942  14.751  0.00  0.00    -0.239 NA
ATOM     10  H   PHE A   1      12.409  15.043  13.776  0.00  0.00    +0.142 HD
ENDBRANCH   8   9
BRANCH   8  11
ATOM     11  C   PHE A   1      14.810  13.928  15.552  0.00  0.00    +0.224 C 
ATOM     12  O   PHE A   1      15.269  13.325  16.541  0.00  0.00    -0.287 OA
ENDBRANCH   8  11
ENDBRANCH   1   8
TORSDOF 4
REMARK  Name = ../refined-set-2016/4q83/4q83_pocket.pdb
REMARK  150 active torsions:
REMARK  status: ('A' for Active; 'I' for Inactive)
REMARK    1  A    between atoms: _1  and  _3
REMARK    2  A    between atoms: _3  and  _4
REMARK    3  A    between atoms: _3  and  _6
REMARK    4  A    between atoms: _6  and  _7
REMARK    5  A    between atoms: _17  and  _19
REMARK    6  A    between atoms: _19  and  _20
REMARK    7  A    between atoms: _19  and  _22
REMARK    8  A    between atoms: _22  and  _23
REMARK    9  A    between atoms: _28  and  _29
REMARK   10  A    between atoms: _31  and  _33
REMARK   11  A    between atoms: _33  and  _34
REMARK   12  A    between atoms: _33  and  _36
REMARK   13  A    between atoms: _36  and  _37
REMARK   14  A    between atoms: _39  and  _41
REMARK   15  A    between atoms: _41  and  _42
REMARK   16  A    between atoms: _41  and  _44
REMARK   17  A    between atoms: _44  and  _45
REMARK   18  A    between atoms: _50  and  _52
REMARK   19  A    between atoms: _52  and  _53
REMARK   20  A    between atoms: _52  and  _55
REMARK   21  A    between atoms: _55  and  _56
REMARK   22  A    between atoms: _61  and  _63
REMARK   23  A    between atoms: _63  and  _64
REMARK   24  A    between atoms: _67  and  _69
REMARK   25  A    between atoms: _69  and  _70
REMARK   26  A    between atoms: _69  and  _72
REMARK   27  A    between atoms: _72  and  _73
REMARK   28  A    between atoms: _78  and  _80
REMARK   29  A    between atoms: _80  and  _81
REMARK   30  A    between atoms: _80  and  _83
REMARK   31  A    between atoms: _83  and  _84
REMARK   32  A    between atoms: _87  and  _89
REMARK   33  A    between atoms: _89  and  _90
REMARK   34  A    between atoms: _89  and  _92
REMARK   35  A    between atoms: _92  and  _93
REMARK   36  A    between atoms: _93  and  _94
REMARK   37  A    between atoms: _99  and  _101
REMARK   38  A    between atoms: _101  and  _102
REMARK   39  A    between atoms: _101  and  _104
REMARK   40  A    between atoms: _104  and  _105
REMARK   41  A    between atoms: _111  and  _113
REMARK   42  A    between atoms: _124  and  _127
REMARK   43  A    between atoms: _127  and  _128
REMARK   44  A    between atoms: _136  and  _137
REMARK   45  A    between atoms: _145  and  _147
REMARK   46  A    between atoms: _147  and  _148
REMARK   47  A    between atoms: _147  and  _150
REMARK   48  A    between atoms: _150  and  _151
REMARK   49  A    between atoms: _151  and  _152
REMARK   50  A    between atoms: _155  and  _157
REMARK   51  A    between atoms: _157  and  _158
REMARK   52  A    between atoms: _157  and  _160
REMARK   53  A    between atoms: _160  and  _161
REMARK   54  A    between atoms: _166  and  _168
REMARK   55  A    between atoms: _168  and  _169
REMARK   56  A    between atoms: _168  and  _171
REMARK   57  A    between atoms: _171  and  _172
REMARK   58  A    between atoms: _172  and  _173
REMARK   59  A    between atoms: _176  and  _178
REMARK   60  A    between atoms: _178  and  _179
REMARK   61  A    between atoms: _178  and  _181
REMARK   62  A    between atoms: _181  and  _182
REMARK   63  A    between atoms: _185  and  _187
REMARK   64  A    between atoms: _187  and  _188
REMARK   65  A    between atoms: _187  and  _190
REMARK   66  A    between atoms: _190  and  _191
REMARK   67  A    between atoms: _192  and  ZN_416
REMARK   68  A    between atoms: _196  and  _198
REMARK   69  A    between atoms: _198  and  _199
REMARK   70  A    between atoms: _198  and  _201
REMARK   71  A    between atoms: _201  and  _202
REMARK   72  A    between atoms: _205  and  _207
REMARK   73  A    between atoms: _207  and  _208
REMARK   74  A    between atoms: _207  and  _210
REMARK   75  A    between atoms: _213  and  _215
REMARK   76  A    between atoms: _215  and  _216
REMARK   77  A    between atoms: _215  and  _218
REMARK   78  A    between atoms: _218  and  _219
REMARK   79  A    between atoms: _224  and  _226
REMARK   80  A    between atoms: _226  and  _227
REMARK   81  A    between atoms: _226  and  _229
REMARK   82  A    between atoms: _229  and  _230
REMARK   83  A    between atoms: _236  and  _238
REMARK   84  A    between atoms: _238  and  _239
REMARK   85  A    between atoms: _238  and  _241
REMARK   86  A    between atoms: _244  and  _246
REMARK   87  A    between atoms: _246  and  _247
REMARK   88  A    between atoms: _246  and  _249
REMARK   89  A    between atoms: _249  and  _250
REMARK   90  A    between atoms: _253  and  _255
REMARK   91  A    between atoms: _255  and  _256
REMARK   92  A    between atoms: _259  and  _261
REMARK   93  A    between atoms: _261  and  _262
REMARK   94  A    between atoms: _261  and  _264
REMARK   95  A    between atoms: _267  and  _269
REMARK   96  A    between atoms: _269  and  _270
REMARK   97  A    between atoms: _269  and  _272
REMARK   98  A    between atoms: _272  and  _273
REMARK   99  A    between atoms: _276  and  _278
REMARK  100  A    between atoms: _278  and  _279
REMARK  101  A    between atoms: _281  and  _283
REMARK  102  A    between atoms: _283  and  _284
REMARK  103  A    between atoms: _283  and  _286
REMARK  104  A    between atoms: _286  and  _287
REMARK  105  A    between atoms: _289  and  _291
REMARK  106  A    between atoms: _291  and  _292
REMARK  107  A    between atoms: _291  and  _294
REMARK  108  A    between atoms: _294  and  _295
REMARK  109  A    between atoms: _298  and  _300
REMARK  110  A    between atoms: _300  and  _301
REMARK  111  A    between atoms: _300  and  _303
REMARK  112  A    between atoms: _303  and  _304
REMARK  113  A    between atoms: _307  and  _309
REMARK  114  A    between atoms: _309  and  _310
REMARK  115  A    between atoms: _309  and  _312
REMARK  116  A    between atoms: _312  and  _313
REMARK  117  A    between atoms: _317  and  _318
REMARK  118  A    between atoms: _324  and  _325
REMARK  119  A    between atoms: _330  and  _332
REMARK  120  A    between atoms: _332  and  _333
REMARK  121  A    between atoms: _332  and  _335
REMARK  122  A    between atoms: _335  and  _336
REMARK  123  A    between atoms: _339  and  _341
REMARK  124  A    between atoms: _341  and  _342
REMARK  125  A    between atoms: _341  and  _344
REMARK  126  A    between atoms: _344  and  _345
REMARK  127  A    between atoms: _348  and  _350
REMARK  128  A    between atoms: _350  and  _351
REMARK  129  A    between atoms: _350  and  _353
REMARK  130  A    between atoms: _355  and  _357
REMARK  131  A    between atoms: _357  and  _358
REMARK  132  A    between atoms: _357  and  _360
REMARK  133  A    between atoms: _363  and  _365
REMARK  134  A    between atoms: _365  and  _366
REMARK  135  A    between atoms: _365  and  _368
REMARK  136  A    between atoms: _368  and  _369
REMARK  137  A    between atoms: _372  and  _374
REMARK  138  A    between atoms: _374  and  _375
REMARK  139  A    between atoms: _374  and  _377
REMARK  140  A    between atoms: _377  and  _378
REMARK  141  A    between atoms: _388  and  _390
REMARK  142  A    between atoms: _390  and  _391
REMARK  143  A    between atoms: _390  and  _393
REMARK  144  A    between atoms: _393  and  _394
REMARK  145  A    between atoms: _399  and  _401
REMARK  146  A    between atoms: _401  and  _402
REMARK  147  A    between atoms: _401  and  _404
REMARK  148  A    between atoms: _404  and  _405
REMARK  149  A    between atoms: _405  and  _406
REMARK  150  A    between atoms: _406  and  _407
REMARK                            x       y       z     vdW  Elec       q    Type
REMARK                         _______ _______ _______ _____ _____    ______ ____
ROOT
ATOM      1  CA  VAL A   1      17.379  11.792  19.697  0.00  0.00    +0.133 C 
ENDROOT
BRANCH   1   2
ATOM      2  CB  VAL A   1      17.815  10.949  18.478  0.00  0.00    +0.023 C 
ATOM      3  CG2 VAL A   1      16.572  10.252  17.905  0.00  0.00    +0.002 C 
ATOM      4  CG1 VAL A   1      18.491  11.816  17.503  0.00  0.00    +0.002 C 
ENDBRANCH   1   2
BRANCH   1   5
ATOM      5  N   VAL A   1      16.277  12.796  19.335  0.00  0.00    -0.239 NA
ATOM      6  H   VAL A   1      16.192  13.160  18.365  0.00  0.00    +0.142 HD
ENDBRANCH   1   5
BRANCH   1   7
ATOM      7  C   VAL A   1      18.560  12.392  20.434  0.00  0.00    +0.224 C 
ATOM      8  O   VAL A   1      19.492  11.653  20.790  0.00  0.00    -0.287 OA
ENDBRANCH   1   7
TORSDOF 3
REMARK  Name = ../refined-set-2016/4q83/4q83_pocket.pdb
REMARK  150 active torsions:
REMARK  status: ('A' for Active; 'I' for Inactive)
REMARK    1  A    between atoms: _1  and  _3
REMARK    2  A    between atoms: _3  and  _4
REMARK    3  A    between atoms: _3  and  _6
REMARK    4  A    between atoms: _6  and  _7
REMARK    5  A    between atoms: _17  and  _19
REMARK    6  A    between atoms: _19  and  _20
REMARK    7  A    between atoms: _19  and  _22
REMARK    8  A    between atoms: _22  and  _23
REMARK    9  A    between atoms: _28  and  _29
REMARK   10  A    between atoms: _31  and  _33
REMARK   11  A    between atoms: _33  and  _34
REMARK   12  A    between atoms: _33  and  _36
REMARK   13  A    between atoms: _36  and  _37
REMARK   14  A    between atoms: _39  and  _41
REMARK   15  A    between atoms: _41  and  _42
REMARK   16  A    between atoms: _41  and  _44
REMARK   17  A    between atoms: _44  and  _45
REMARK   18  A    between atoms: _50  and  _52
REMARK   19  A    between atoms: _52  and  _53
REMARK   20  A    between atoms: _52  and  _55
REMARK   21  A    between atoms: _55  and  _56
REMARK   22  A    between atoms: _61  and  _63
REMARK   23  A    between atoms: _63  and  _64
REMARK   24  A    between atoms: _67  and  _69
REMARK   25  A    between atoms: _69  and  _70
REMARK   26  A    between atoms: _69  and  _72
REMARK   27  A    between atoms: _72  and  _73
REMARK   28  A    between atoms: _78  and  _80
REMARK   29  A    between atoms: _80  and  _81
REMARK   30  A    between atoms: _80  and  _83
REMARK   31  A    between atoms: _83  and  _84
REMARK   32  A    between atoms: _87  and  _89
REMARK   33  A    between atoms: _89  and  _90
REMARK   34  A    between atoms: _89  and  _92
REMARK   35  A    between atoms: _92  and  _93
REMARK   36  A    between atoms: _93  and  _94
REMARK   37  A    between atoms: _99  and  _101
REMARK   38  A    between atoms: _101  and  _102
REMARK   39  A    between atoms: _101  and  _104
REMARK   40  A    between atoms: _104  and  _105
REMARK   41  A    between atoms: _111  and  _113
REMARK   42  A    between atoms: _124  and  _127
REMARK   43  A    between atoms: _127  and  _128
REMARK   44  A    between atoms: _136  and  _137
REMARK   45  A    between atoms: _145  and  _147
REMARK   46  A    between atoms: _147  and  _148
REMARK   47  A    between atoms: _147  and  _150
REMARK   48  A    between atoms: _150  and  _151
REMARK   49  A    between atoms: _151  and  _152
REMARK   50  A    between atoms: _155  and  _157
REMARK   51  A    between atoms: _157  and  _158
REMARK   52  A    between atoms: _157  and  _160
REMARK   53  A    between atoms: _160  and  _161
REMARK   54  A    between atoms: _166  and  _168
REMARK   55  A    between atoms: _168  and  _169
REMARK   56  A    between atoms: _168  and  _171
REMARK   57  A    between atoms: _171  and  _172
REMARK   58  A    between atoms: _172  and  _173
REMARK   59  A    between atoms: _176  and  _178
REMARK   60  A    between atoms: _178  and  _179
REMARK   61  A    between atoms: _178  and  _181
REMARK   62  A    between atoms: _181  and  _182
REMARK   63  A    between atoms: _185  and  _187
REMARK   64  A    between atoms: _187  and  _188
REMARK   65  A    between atoms: _187  and  _190
REMARK   66  A    between atoms: _190  and  _191
REMARK   67  A    between atoms: _192  and  ZN_416
REMARK   68  A    between atoms: _196  and  _198
REMARK   69  A    between atoms: _198  and  _199
REMARK   70  A    between atoms: _198  and  _201
REMARK   71  A    between atoms: _201  and  _202
REMARK   72  A    between atoms: _205  and  _207
REMARK   73  A    between atoms: _207  and  _208
REMARK   74  A    between atoms: _207  and  _210
REMARK   75  A    between atoms: _213  and  _215
REMARK   76  A    between atoms: _215  and  _216
REMARK   77  A    between atoms: _215  and  _218
REMARK   78  A    between atoms: _218  and  _219
REMARK   79  A    between atoms: _224  and  _226
REMARK   80  A    between atoms: _226  and  _227
REMARK   81  A    between atoms: _226  and  _229
REMARK   82  A    between atoms: _229  and  _230
REMARK   83  A    between atoms: _236  and  _238
REMARK   84  A    between atoms: _238  and  _239
REMARK   85  A    between atoms: _238  and  _241
REMARK   86  A    between atoms: _244  and  _246
REMARK   87  A    between atoms: _246  and  _247
REMARK   88  A    between atoms: _246  and  _249
REMARK   89  A    between atoms: _249  and  _250
REMARK   90  A    between atoms: _253  and  _255
REMARK   91  A    between atoms: _255  and  _256
REMARK   92  A    between atoms: _259  and  _261
REMARK   93  A    between atoms: _261  and  _262
REMARK   94  A    between atoms: _261  and  _264
REMARK   95  A    between atoms: _267  and  _269
REMARK   96  A    between atoms: _269  and  _270
REMARK   97  A    between atoms: _269  and  _272
REMARK   98  A    between atoms: _272  and  _273
REMARK   99  A    between atoms: _276  and  _278
REMARK  100  A    between atoms: _278  and  _279
REMARK  101  A    between atoms: _281  and  _283
REMARK  102  A    between atoms: _283  and  _284
REMARK  103  A    between atoms: _283  and  _286
REMARK  104  A    between atoms: _286  and  _287
REMARK  105  A    between atoms: _289  and  _291
REMARK  106  A    between atoms: _291  and  _292
REMARK  107  A    between atoms: _291  and  _294
REMARK  108  A    between atoms: _294  and  _295
REMARK  109  A    between atoms: _298  and  _300
REMARK  110  A    between atoms: _300  and  _301
REMARK  111  A    between atoms: _300  and  _303
REMARK  112  A    between atoms: _303  and  _304
REMARK  113  A    between atoms: _307  and  _309
REMARK  114  A    between atoms: _309  and  _310
REMARK  115  A    between atoms: _309  and  _312
REMARK  116  A    between atoms: _312  and  _313
REMARK  117  A    between atoms: _317  and  _318
REMARK  118  A    between atoms: _324  and  _325
REMARK  119  A    between atoms: _330  and  _332
REMARK  120  A    between atoms: _332  and  _333
REMARK  121  A    between atoms: _332  and  _335
REMARK  122  A    between atoms: _335  and  _336
REMARK  123  A    between atoms: _339  and  _341
REMARK  124  A    between atoms: _341  and  _342
REMARK  125  A    between atoms: _341  and  _344
REMARK  126  A    between atoms: _344  and  _345
REMARK  127  A    between atoms: _348  and  _350
REMARK  128  A    between atoms: _350  and  _351
REMARK  129  A    between atoms: _350  and  _353
REMARK  130  A    between atoms: _355  and  _357
REMARK  131  A    between atoms: _357  and  _358
REMARK  132  A    between atoms: _357  and  _360
REMARK  133  A    between atoms: _363  and  _365
REMARK  134  A    between atoms: _365  and  _366
REMARK  135  A    between atoms: _365  and  _368
REMARK  136  A    between atoms: _368  and  _369
REMARK  137  A    between atoms: _372  and  _374
REMARK  138  A    between atoms: _374  and  _375
REMARK  139  A    between atoms: _374  and  _377
REMARK  140  A    between atoms: _377  and  _378
REMARK  141  A    between atoms: _388  and  _390
REMARK  142  A    between atoms: _390  and  _391
REMARK  143  A    between atoms: _390  and  _393
REMARK  144  A    between atoms: _393  and  _394
REMARK  145  A    between atoms: _399  and  _401
REMARK  146  A    between atoms: _401  and  _402
REMARK  147  A    between atoms: _401  and  _404
REMARK  148  A    between atoms: _404  and  _405
REMARK  149  A    between atoms: _405  and  _406
REMARK  150  A    between atoms: _406  and  _407
REMARK                            x       y       z     vdW  Elec       q    Type
REMARK                         _______ _______ _______ _____ _____    ______ ____
ROOT
ATOM      1  C   ALA A   2       8.705   4.877  20.818  0.00  0.00    +0.241 C 
ATOM      2  N   VAL A   3       9.106   3.599  21.106  0.00  0.00    -0.297 N 
ATOM      3  H   VAL A   3       9.477   3.370  22.050  0.00  0.00    +0.150 HD
ATOM      4  O   ALA A   2       8.319   5.197  19.688  0.00  0.00    -0.273 OA
ENDROOT
BRANCH   1   5
ATOM      5  CA  ALA A   2       8.789   5.919  21.938  0.00  0.00    +0.149 C 
ATOM      6  CB  ALA A   2       7.366   6.367  22.330  0.00  0.00    +0.031 C 
BRANCH   5   9
ATOM      7  C   LEU A   1      10.618   7.501  22.067  0.00  0.00    +0.238 C 
ATOM      8  O   LEU A   1      10.875   7.203  23.253  0.00  0.00    -0.274 OA
ATOM      9  N   ALA A   2       9.597   7.045  21.387  0.00  0.00    -0.297 N 
ATOM     10  H   ALA A   2       9.351   7.465  20.468  0.00  0.00    +0.150 HD
BRANCH   7  11
ATOM     11  CA  LEU A   1      11.506   8.442  21.272  0.00  0.00    +0.145 C 
BRANCH  11  12
ATOM     12  N   LEU A   1      12.152   9.382  22.176  0.00  0.00    -0.238 NA
ATOM     13  H   LEU A   1      12.667   9.035  23.010  0.00  0.00    +0.142 HD
ENDBRANCH  11  12
BRANCH  11  14
ATOM     14  CB  LEU A   1      12.554   7.511  20.560  0.00  0.00    +0.026 C 
BRANCH  14  15
ATOM     15  CG  LEU A   1      13.510   8.333  19.689  0.00  0.00    +0.002 C 
ATOM     16  CD2 LEU A   1      14.369   7.376  18.967  0.00  0.00    +0.000 C 
ATOM     17  CD1 LEU A   1      12.835   9.173  18.585  0.00  0.00    +0.000 C 
ENDBRANCH  14  15
ENDBRANCH  11  14
ENDBRANCH   7  11
ENDBRANCH   5   9
ENDBRANCH   1   5
BRANCH   2  18
ATOM     18  CA  VAL A   3       9.013   2.577  20.102  0.00  0.00    +0.149 C 
BRANCH  18  19
ATOM     19  C   VAL A   3       8.061   1.485  20.588  0.00  0.00    +0.241 C 
ATOM     20  O   VAL A   3       8.173   1.001  21.710  0.00  0.00    -0.273 OA
ATOM     21  N   LEU A   4       7.081   1.203  19.740  0.00  0.00    -0.298 N 
ATOM     22  H   LEU A   4       7.014   1.757  18.862  0.00  0.00    +0.150 HD
BRANCH  21  23
ATOM     23  CA  LEU A   4       6.091   0.155  19.974  0.00  0.00    +0.137 C 
BRANCH  23  24
ATOM     24  C   LEU A   4       6.666  -1.085  19.326  0.00  0.00    +0.227 C 
ATOM     25  O   LEU A   4       6.813  -1.110  18.108  0.00  0.00    -0.286 OA
ENDBRANCH  23  24
BRANCH  23  26
ATOM     26  CB  LEU A   4       4.740   0.520  19.292  0.00  0.00    +0.028 C 
BRANCH  26  27
ATOM     27  CG  LEU A   4       3.568  -0.409  19.515  0.00  0.00    +0.002 C 
ATOM     28  CD2 LEU A   4       3.315  -0.676  21.023  0.00  0.00    +0.000 C 
ATOM     29  CD1 LEU A   4       2.293   0.265  18.817  0.00  0.00    +0.000 C 
ENDBRANCH  26  27
ENDBRANCH  23  26
ENDBRANCH  21  23
ENDBRANCH  18  19
BRANCH  18  30
ATOM     30  CB  VAL A   3      10.357   1.948  19.837  0.00  0.00    +0.027 C 
ATOM     31  CG2 VAL A   3      11.370   3.019  19.353  0.00  0.00    +0.002 C 
ATOM     32  CG1 VAL A   3      10.261   0.932  18.688  0.00  0.00    +0.002 C 
ENDBRANCH  18  30
ENDBRANCH   2  18
TORSDOF 13
REMARK  Name = ../refined-set-2016/4q83/4q83_pocket.pdb
REMARK  150 active torsions:
REMARK  status: ('A' for Active; 'I' for Inactive)
REMARK    1  A    between atoms: _1  and  _3
REMARK    2  A    between atoms: _3  and  _4
REMARK    3  A    between atoms: _3  and  _6
REMARK    4  A    between atoms: _6  and  _7
REMARK    5  A    between atoms: _17  and  _19
REMARK    6  A    between atoms: _19  and  _20
REMARK    7  A    between atoms: _19  and  _22
REMARK    8  A    between atoms: _22  and  _23
REMARK    9  A    between atoms: _28  and  _29
REMARK   10  A    between atoms: _31  and  _33
REMARK   11  A    between atoms: _33  and  _34
REMARK   12  A    between atoms: _33  and  _36
REMARK   13  A    between atoms: _36  and  _37
REMARK   14  A    between atoms: _39  and  _41
REMARK   15  A    between atoms: _41  and  _42
REMARK   16  A    between atoms: _41  and  _44
REMARK   17  A    between atoms: _44  and  _45
REMARK   18  A    between atoms: _50  and  _52
REMARK   19  A    between atoms: _52  and  _53
REMARK   20  A    between atoms: _52  and  _55
REMARK   21  A    between atoms: _55  and  _56
REMARK   22  A    between atoms: _61  and  _63
REMARK   23  A    between atoms: _63  and  _64
REMARK   24  A    between atoms: _67  and  _69
REMARK   25  A    between atoms: _69  and  _70
REMARK   26  A    between atoms: _69  and  _72
REMARK   27  A    between atoms: _72  and  _73
REMARK   28  A    between atoms: _78  and  _80
REMARK   29  A    between atoms: _80  and  _81
REMARK   30  A    between atoms: _80  and  _83
REMARK   31  A    between atoms: _83  and  _84
REMARK   32  A    between atoms: _87  and  _89
REMARK   33  A    between atoms: _89  and  _90
REMARK   34  A    between atoms: _89  and  _92
REMARK   35  A    between atoms: _92  and  _93
REMARK   36  A    between atoms: _93  and  _94
REMARK   37  A    between atoms: _99  and  _101
REMARK   38  A    between atoms: _101  and  _102
REMARK   39  A    between atoms: _101  and  _104
REMARK   40  A    between atoms: _104  and  _105
REMARK   41  A    between atoms: _111  and  _113
REMARK   42  A    between atoms: _124  and  _127
REMARK   43  A    between atoms: _127  and  _128
REMARK   44  A    between atoms: _136  and  _137
REMARK   45  A    between atoms: _145  and  _147
REMARK   46  A    between atoms: _147  and  _148
REMARK   47  A    between atoms: _147  and  _150
REMARK   48  A    between atoms: _150  and  _151
REMARK   49  A    between atoms: _151  and  _152
REMARK   50  A    between atoms: _155  and  _157
REMARK   51  A    between atoms: _157  and  _158
REMARK   52  A    between atoms: _157  and  _160
REMARK   53  A    between atoms: _160  and  _161
REMARK   54  A    between atoms: _166  and  _168
REMARK   55  A    between atoms: _168  and  _169
REMARK   56  A    between atoms: _168  and  _171
REMARK   57  A    between atoms: _171  and  _172
REMARK   58  A    between atoms: _172  and  _173
REMARK   59  A    between atoms: _176  and  _178
REMARK   60  A    between atoms: _178  and  _179
REMARK   61  A    between atoms: _178  and  _181
REMARK   62  A    between atoms: _181  and  _182
REMARK   63  A    between atoms: _185  and  _187
REMARK   64  A    between atoms: _187  and  _188
REMARK   65  A    between atoms: _187  and  _190
REMARK   66  A    between atoms: _190  and  _191
REMARK   67  A    between atoms: _192  and  ZN_416
REMARK   68  A    between atoms: _196  and  _198
REMARK   69  A    between atoms: _198  and  _199
REMARK   70  A    between atoms: _198  and  _201
REMARK   71  A    between atoms: _201  and  _202
REMARK   72  A    between atoms: _205  and  _207
REMARK   73  A    between atoms: _207  and  _208
REMARK   74  A    between atoms: _207  and  _210
REMARK   75  A    between atoms: _213  and  _215
REMARK   76  A    between atoms: _215  and  _216
REMARK   77  A    between atoms: _215  and  _218
REMARK   78  A    between atoms: _218  and  _219
REMARK   79  A    between atoms: _224  and  _226
REMARK   80  A    between atoms: _226  and  _227
REMARK   81  A    between atoms: _226  and  _229
REMARK   82  A    between atoms: _229  and  _230
REMARK   83  A    between atoms: _236  and  _238
REMARK   84  A    between atoms: _238  and  _239
REMARK   85  A    between atoms: _238  and  _241
REMARK   86  A    between atoms: _244  and  _246
REMARK   87  A    between atoms: _246  and  _247
REMARK   88  A    between atoms: _246  and  _249
REMARK   89  A    between atoms: _249  and  _250
REMARK   90  A    between atoms: _253  and  _255
REMARK   91  A    between atoms: _255  and  _256
REMARK   92  A    between atoms: _259  and  _261
REMARK   93  A    between atoms: _261  and  _262
REMARK   94  A    between atoms: _261  and  _264
REMARK   95  A    between atoms: _267  and  _269
REMARK   96  A    between atoms: _269  and  _270
REMARK   97  A    between atoms: _269  and  _272
REMARK   98  A    between atoms: _272  and  _273
REMARK   99  A    between atoms: _276  and  _278
REMARK  100  A    between atoms: _278  and  _279
REMARK  101  A    between atoms: _281  and  _283
REMARK  102  A    between atoms: _283  and  _284
REMARK  103  A    between atoms: _283  and  _286
REMARK  104  A    between atoms: _286  and  _287
REMARK  105  A    between atoms: _289  and  _291
REMARK  106  A    between atoms: _291  and  _292
REMARK  107  A    between atoms: _291  and  _294
REMARK  108  A    between atoms: _294  and  _295
REMARK  109  A    between atoms: _298  and  _300
REMARK  110  A    between atoms: _300  and  _301
REMARK  111  A    between atoms: _300  and  _303
REMARK  112  A    between atoms: _303  and  _304
REMARK  113  A    between atoms: _307  and  _309
REMARK  114  A    between atoms: _309  and  _310
REMARK  115  A    between atoms: _309  and  _312
REMARK  116  A    between atoms: _312  and  _313
REMARK  117  A    between atoms: _317  and  _318
REMARK  118  A    between atoms: _324  and  _325
REMARK  119  A    between atoms: _330  and  _332
REMARK  120  A    between atoms: _332  and  _333
REMARK  121  A    between atoms: _332  and  _335
REMARK  122  A    between atoms: _335  and  _336
REMARK  123  A    between atoms: _339  and  _341
REMARK  124  A    between atoms: _341  and  _342
REMARK  125  A    between atoms: _341  and  _344
REMARK  126  A    between atoms: _344  and  _345
REMARK  127  A    between atoms: _348  and  _350
REMARK  128  A    between atoms: _350  and  _351
REMARK  129  A    between atoms: _350  and  _353
REMARK  130  A    between atoms: _355  and  _357
REMARK  131  A    between atoms: _357  and  _358
REMARK  132  A    between atoms: _357  and  _360
REMARK  133  A    between atoms: _363  and  _365
REMARK  134  A    between atoms: _365  and  _366
REMARK  135  A    between atoms: _365  and  _368
REMARK  136  A    between atoms: _368  and  _369
REMARK  137  A    between atoms: _372  and  _374
REMARK  138  A    between atoms: _374  and  _375
REMARK  139  A    between atoms: _374  and  _377
REMARK  140  A    between atoms: _377  and  _378
REMARK  141  A    between atoms: _388  and  _390
REMARK  142  A    between atoms: _390  and  _391
REMARK  143  A    between atoms: _390  and  _393
REMARK  144  A    between atoms: _393  and  _394
REMARK  145  A    between atoms: _399  and  _401
REMARK  146  A    between atoms: _401  and  _402
REMARK  147  A    between atoms: _401  and  _404
REMARK  148  A    between atoms: _404  and  _405
REMARK  149  A    between atoms: _405  and  _406
REMARK  150  A    between atoms: _406  and  _407
REMARK                            x       y       z     vdW  Elec       q    Type
REMARK                         _______ _______ _______ _____ _____    ______ ____
ROOT
ATOM      1  CA  THR A   5      21.332  -0.305  16.058  0.00  0.00    +0.176 C 
ENDROOT
BRANCH   1   2
ATOM      2  C   THR A   5      22.186   0.888  16.377  0.00  0.00    +0.246 C 
ATOM      3  O   THR A   5      21.721   1.864  16.983  0.00  0.00    -0.273 OA
ATOM      4  N   PRO A   6      23.461   0.896  15.888  0.00  0.00    -0.272 N 
ATOM      5  CA  PRO A   6      24.205   2.118  16.000  0.00  0.00    +0.152 C 
ATOM      6  CB  PRO A   6      25.454   1.805  15.142  0.00  0.00    +0.031 C 
ATOM      7  CG  PRO A   6      25.680   0.272  15.470  0.00  0.00    +0.024 C 
ATOM      8  CD  PRO A   6      24.225  -0.231  15.337  0.00  0.00    +0.094 C 
BRANCH   5   9
ATOM      9  C   PRO A   6      23.337   3.287  15.429  0.00  0.00    +0.244 C 
ATOM     10  N   PRO A   7      23.396   4.486  16.017  0.00  0.00    -0.272 N 
ATOM     11  CA  PRO A   7      24.341   4.881  17.042  0.00  0.00    +0.152 C 
ATOM     12  CB  PRO A   7      24.358   6.440  16.940  0.00  0.00    +0.031 C 
ATOM     13  CG  PRO A   7      23.025   6.742  16.433  0.00  0.00    +0.024 C 
ATOM     14  CD  PRO A   7      22.653   5.648  15.469  0.00  0.00    +0.094 C 
ATOM     15  O   PRO A   6      22.686   3.136  14.349  0.00  0.00    -0.273 OA
BRANCH  11  16
ATOM     16  C   PRO A   7      23.953   4.517  18.503  0.00  0.00    +0.241 C 
ATOM     17  O   PRO A   7      24.582   5.032  19.484  0.00  0.00    -0.273 OA
ATOM     18  N   LEU A   8      22.945   3.638  18.660  0.00  0.00    -0.297 N 
ATOM     19  H   LEU A   8      22.369   3.350  17.844  0.00  0.00    +0.150 HD
BRANCH  18  20
ATOM     20  CA  LEU A   8      22.662   3.081  20.012  0.00  0.00    +0.149 C 
BRANCH  20  21
ATOM     21  C   LEU A   8      22.228   4.103  21.095  0.00  0.00    +0.241 C 
ATOM     22  O   LEU A   8      22.347   3.860  22.310  0.00  0.00    -0.273 OA
ATOM     23  N   LEU A   9      21.602   5.181  20.584  0.00  0.00    -0.298 N 
ATOM     24  H   LEU A   9      21.302   5.213  19.589  0.00  0.00    +0.150 HD
BRANCH  23  25
ATOM     25  CA  LEU A   9      21.359   6.323  21.504  0.00  0.00    +0.137 C 
BRANCH  25  26
ATOM     26  C   LEU A   9      20.306   5.935  22.578  0.00  0.00    +0.227 C 
ATOM     27  O   LEU A   9      19.292   5.283  22.271  0.00  0.00    -0.286 OA
ENDBRANCH  25  26
BRANCH  25  28
ATOM     28  CB  LEU A   9      20.861   7.528  20.676  0.00  0.00    +0.028 C 
BRANCH  28  29
ATOM     29  CG  LEU A   9      21.954   8.022  19.707  0.00  0.00    +0.002 C 
ATOM     30  CD2 LEU A   9      23.134   8.623  20.494  0.00  0.00    +0.000 C 
ATOM     31  CD1 LEU A   9      21.317   8.986  18.690  0.00  0.00    +0.000 C 
ENDBRANCH  28  29
ENDBRANCH  25  28
ENDBRANCH  23  25
ENDBRANCH  20  21
BRANCH  20  32
ATOM     32  CB  LEU A   8      23.796   2.147  20.550  0.00  0.00    +0.029 C 
BRANCH  32  33
ATOM     33  CG  LEU A   8      24.054   1.021  19.559  0.00  0.00    +0.002 C 
ATOM     34  CD2 LEU A   8      25.460   0.406  19.909  0.00  0.00    +0.000 C 
ATOM     35  CD1 LEU A   8      22.967  -0.102  19.578  0.00  0.00    +0.000 C 
ENDBRANCH  32  33
ENDBRANCH  20  32
ENDBRANCH  18  20
ENDBRANCH  11  16
ENDBRANCH   5   9
ENDBRANCH   1   2
BRANCH   1  38
ATOM     36  C   THR A   4      20.060  -1.412  17.881  0.00  0.00    +0.243 C 
ATOM     37  O   THR A   4      20.708  -2.453  17.742  0.00  0.00    -0.273 OA
ATOM     38  N   THR A   5      20.232  -0.380  17.022  0.00  0.00    -0.295 N 
ATOM     39  H   THR A   5      19.546   0.401  17.048  0.00  0.00    +0.150 HD
BRANCH  36  40
ATOM     40  CA  THR A   4      19.068  -1.315  18.979  0.00  0.00    +0.176 C 
BRANCH  40  43
ATOM     41  C   LEU A   3      18.791   0.912  19.803  0.00  0.00    +0.241 C 
ATOM     42  O   LEU A   3      19.836   0.773  20.510  0.00  0.00    -0.273 OA
ATOM     43  N   THR A   4      18.385  -0.029  18.957  0.00  0.00    -0.295 N 
ATOM     44  H   THR A   4      17.601   0.148  18.297  0.00  0.00    +0.150 HD
BRANCH  41  45
ATOM     45  CA  LEU A   3      18.075   2.291  19.695  0.00  0.00    +0.149 C 
BRANCH  45  48
ATOM     46  C   SER A   2      17.512   2.161  22.054  0.00  0.00    +0.243 C 
ATOM     47  O   SER A   2      16.757   1.193  21.881  0.00  0.00    -0.273 OA
ATOM     48  N   LEU A   3      18.089   2.815  21.048  0.00  0.00    -0.297 N 
ATOM     49  H   LEU A   3      18.561   3.723  21.236  0.00  0.00    +0.150 HD
BRANCH  46  50
ATOM     50  CA  SER A   2      17.935   2.605  23.483  0.00  0.00    +0.178 C 
BRANCH  50  53
ATOM     51  C   GLY A   1      16.730   2.634  25.562  0.00  0.00    +0.240 C 
ATOM     52  O   GLY A   1      16.831   3.889  25.675  0.00  0.00    -0.274 OA
ATOM     53  N   SER A   2      17.149   1.979  24.519  0.00  0.00    -0.295 N 
ATOM     54  H   SER A   2      16.910   0.971  24.429  0.00  0.00    +0.150 HD
BRANCH  51  55
ATOM     55  CA  GLY A   1      16.181   1.768  26.664  0.00  0.00    +0.169 C 
BRANCH  55  56
ATOM     56  N   GLY A   1      15.077   2.439  27.391  0.00  0.00    -0.236 NA
ATOM     57  H   GLY A   1      14.475   3.145  26.920  0.00  0.00    +0.142 HD
ENDBRANCH  55  56
ENDBRANCH  51  55
ENDBRANCH  50  53
BRANCH  50  58
ATOM     58  CB  SER A   2      19.440   2.207  23.650  0.00  0.00    +0.166 C 
BRANCH  58  59
ATOM     59  OG  SER A   2      19.700   0.840  23.236  0.00  0.00    -0.380 OA
ATOM     60  H   SER A   2      19.459   0.734  22.282  0.00  0.00    +0.211 HD
ENDBRANCH  58  59
ENDBRANCH  50  58
ENDBRANCH  46  50
ENDBRANCH  45  48
BRANCH  45  61
ATOM     61  CB  LEU A   3      18.948   3.124  18.760  0.00  0.00    +0.029 C 
BRANCH  61  62
ATOM     62  CG  LEU A   3      18.677   4.569  18.491  0.00  0.00    +0.002 C 
ATOM     63  CD2 LEU A   3      17.483   5.310  18.963  0.00  0.00    +0.000 C 
ATOM     64  CD1 LEU A   3      19.301   5.026  17.116  0.00  0.00    +0.000 C 
ENDBRANCH  61  62
ENDBRANCH  45  61
ENDBRANCH  41  45
ENDBRANCH  40  43
BRANCH  40  65
ATOM     65  CB  THR A   4      18.056  -2.472  18.867  0.00  0.00    +0.137 C 
ATOM     66  CG2 THR A   4      17.064  -2.422  20.022  0.00  0.00    +0.034 C 
BRANCH  65  67
ATOM     67  OG1 THR A   4      17.343  -2.376  17.625  0.00  0.00    -0.382 OA
ATOM     68  HG1 THR A   4      16.695  -3.122  17.559  0.00  0.00    +0.210 HD
ENDBRANCH  65  67
ENDBRANCH  40  65
ENDBRANCH  36  40
ENDBRANCH   1  38
BRANCH   1  69
ATOM     69  CB  THR A   5      20.790  -0.109  14.644  0.00  0.00    +0.137 C 
ATOM     70  CG2 THR A   5      19.867  -1.235  14.213  0.00  0.00    +0.034 C 
BRANCH  69  71
ATOM     71  OG1 THR A   5      20.050   1.120  14.584  0.00  0.00    -0.382 OA
ATOM     72  HG1 THR A   5      20.646   1.875  14.818  0.00  0.00    +0.210 HD
ENDBRANCH  69  71
ENDBRANCH   1  69
TORSDOF 28
REMARK  Name = ../refined-set-2016/4q83/4q83_pocket.pdb
REMARK  150 active torsions:
REMARK  status: ('A' for Active; 'I' for Inactive)
REMARK    1  A    between atoms: _1  and  _3
REMARK    2  A    between atoms: _3  and  _4
REMARK    3  A    between atoms: _3  and  _6
REMARK    4  A    between atoms: _6  and  _7
REMARK    5  A    between atoms: _17  and  _19
REMARK    6  A    between atoms: _19  and  _20
REMARK    7  A    between atoms: _19  and  _22
REMARK    8  A    between atoms: _22  and  _23
REMARK    9  A    between atoms: _28  and  _29
REMARK   10  A    between atoms: _31  and  _33
REMARK   11  A    between atoms: _33  and  _34
REMARK   12  A    between atoms: _33  and  _36
REMARK   13  A    between atoms: _36  and  _37
REMARK   14  A    between atoms: _39  and  _41
REMARK   15  A    between atoms: _41  and  _42
REMARK   16  A    between atoms: _41  and  _44
REMARK   17  A    between atoms: _44  and  _45
REMARK   18  A    between atoms: _50  and  _52
REMARK   19  A    between atoms: _52  and  _53
REMARK   20  A    between atoms: _52  and  _55
REMARK   21  A    between atoms: _55  and  _56
REMARK   22  A    between atoms: _61  and  _63
REMARK   23  A    between atoms: _63  and  _64
REMARK   24  A    between atoms: _67  and  _69
REMARK   25  A    between atoms: _69  and  _70
REMARK   26  A    between atoms: _69  and  _72
REMARK   27  A    between atoms: _72  and  _73
REMARK   28  A    between atoms: _78  and  _80
REMARK   29  A    between atoms: _80  and  _81
REMARK   30  A    between atoms: _80  and  _83
REMARK   31  A    between atoms: _83  and  _84
REMARK   32  A    between atoms: _87  and  _89
REMARK   33  A    between atoms: _89  and  _90
REMARK   34  A    between atoms: _89  and  _92
REMARK   35  A    between atoms: _92  and  _93
REMARK   36  A    between atoms: _93  and  _94
REMARK   37  A    between atoms: _99  and  _101
REMARK   38  A    between atoms: _101  and  _102
REMARK   39  A    between atoms: _101  and  _104
REMARK   40  A    between atoms: _104  and  _105
REMARK   41  A    between atoms: _111  and  _113
REMARK   42  A    between atoms: _124  and  _127
REMARK   43  A    between atoms: _127  and  _128
REMARK   44  A    between atoms: _136  and  _137
REMARK   45  A    between atoms: _145  and  _147
REMARK   46  A    between atoms: _147  and  _148
REMARK   47  A    between atoms: _147  and  _150
REMARK   48  A    between atoms: _150  and  _151
REMARK   49  A    between atoms: _151  and  _152
REMARK   50  A    between atoms: _155  and  _157
REMARK   51  A    between atoms: _157  and  _158
REMARK   52  A    between atoms: _157  and  _160
REMARK   53  A    between atoms: _160  and  _161
REMARK   54  A    between atoms: _166  and  _168
REMARK   55  A    between atoms: _168  and  _169
REMARK   56  A    between atoms: _168  and  _171
REMARK   57  A    between atoms: _171  and  _172
REMARK   58  A    between atoms: _172  and  _173
REMARK   59  A    between atoms: _176  and  _178
REMARK   60  A    between atoms: _178  and  _179
REMARK   61  A    between atoms: _178  and  _181
REMARK   62  A    between atoms: _181  and  _182
REMARK   63  A    between atoms: _185  and  _187
REMARK   64  A    between atoms: _187  and  _188
REMARK   65  A    between atoms: _187  and  _190
REMARK   66  A    between atoms: _190  and  _191
REMARK   67  A    between atoms: _192  and  ZN_416
REMARK   68  A    between atoms: _196  and  _198
REMARK   69  A    between atoms: _198  and  _199
REMARK   70  A    between atoms: _198  and  _201
REMARK   71  A    between atoms: _201  and  _202
REMARK   72  A    between atoms: _205  and  _207
REMARK   73  A    between atoms: _207  and  _208
REMARK   74  A    between atoms: _207  and  _210
REMARK   75  A    between atoms: _213  and  _215
REMARK   76  A    between atoms: _215  and  _216
REMARK   77  A    between atoms: _215  and  _218
REMARK   78  A    between atoms: _218  and  _219
REMARK   79  A    between atoms: _224  and  _226
REMARK   80  A    between atoms: _226  and  _227
REMARK   81  A    between atoms: _226  and  _229
REMARK   82  A    between atoms: _229  and  _230
REMARK   83  A    between atoms: _236  and  _238
REMARK   84  A    between atoms: _238  and  _239
REMARK   85  A    between atoms: _238  and  _241
REMARK   86  A    between atoms: _244  and  _246
REMARK   87  A    between atoms: _246  and  _247
REMARK   88  A    between atoms: _246  and  _249
REMARK   89  A    between atoms: _249  and  _250
REMARK   90  A    between atoms: _253  and  _255
REMARK   91  A    between atoms: _255  and  _256
REMARK   92  A    between atoms: _259  and  _261
REMARK   93  A    between atoms: _261  and  _262
REMARK   94  A    between atoms: _261  and  _264
REMARK   95  A    between atoms: _267  and  _269
REMARK   96  A    between atoms: _269  and  _270
REMARK   97  A    between atoms: _269  and  _272
REMARK   98  A    between atoms: _272  and  _273
REMARK   99  A    between atoms: _276  and  _278
REMARK  100  A    between atoms: _278  and  _279
REMARK  101  A    between atoms: _281  and  _283
REMARK  102  A    between atoms: _283  and  _284
REMARK  103  A    between atoms: _283  and  _286
REMARK  104  A    between atoms: _286  and  _287
REMARK  105  A    between atoms: _289  and  _291
REMARK  106  A    between atoms: _291  and  _292
REMARK  107  A    between atoms: _291  and  _294
REMARK  108  A    between atoms: _294  and  _295
REMARK  109  A    between atoms: _298  and  _300
REMARK  110  A    between atoms: _300  and  _301
REMARK  111  A    between atoms: _300  and  _303
REMARK  112  A    between atoms: _303  and  _304
REMARK  113  A    between atoms: _307  and  _309
REMARK  114  A    between atoms: _309  and  _310
REMARK  115  A    between atoms: _309  and  _312
REMARK  116  A    between atoms: _312  and  _313
REMARK  117  A    between atoms: _317  and  _318
REMARK  118  A    between atoms: _324  and  _325
REMARK  119  A    between atoms: _330  and  _332
REMARK  120  A    between atoms: _332  and  _333
REMARK  121  A    between atoms: _332  and  _335
REMARK  122  A    between atoms: _335  and  _336
REMARK  123  A    between atoms: _339  and  _341
REMARK  124  A    between atoms: _341  and  _342
REMARK  125  A    between atoms: _341  and  _344
REMARK  126  A    between atoms: _344  and  _345
REMARK  127  A    between atoms: _348  and  _350
REMARK  128  A    between atoms: _350  and  _351
REMARK  129  A    between atoms: _350  and  _353
REMARK  130  A    between atoms: _355  and  _357
REMARK  131  A    between atoms: _357  and  _358
REMARK  132  A    between atoms: _357  and  _360
REMARK  133  A    between atoms: _363  and  _365
REMARK  134  A    between atoms: _365  and  _366
REMARK  135  A    between atoms: _365  and  _368
REMARK  136  A    between atoms: _368  and  _369
REMARK  137  A    between atoms: _372  and  _374
REMARK  138  A    between atoms: _374  and  _375
REMARK  139  A    between atoms: _374  and  _377
REMARK  140  A    between atoms: _377  and  _378
REMARK  141  A    between atoms: _388  and  _390
REMARK  142  A    between atoms: _390  and  _391
REMARK  143  A    between atoms: _390  and  _393
REMARK  144  A    between atoms: _393  and  _394
REMARK  145  A    between atoms: _399  and  _401
REMARK  146  A    between atoms: _401  and  _402
REMARK  147  A    between atoms: _401  and  _404
REMARK  148  A    between atoms: _404  and  _405
REMARK  149  A    between atoms: _405  and  _406
REMARK  150  A    between atoms: _406  and  _407
REMARK                            x       y       z     vdW  Elec       q    Type
REMARK                         _______ _______ _______ _____ _____    ______ ____
ROOT
ATOM      1  CA  THR A   3      10.674   4.468  26.068  0.00  0.00    +0.176 C 
ENDROOT
BRANCH   1   4
ATOM      2  C   VAL A   2      12.922   4.863  25.120  0.00  0.00    +0.241 C 
ATOM      3  O   VAL A   2      13.491   4.132  26.001  0.00  0.00    -0.273 OA
ATOM      4  N   THR A   3      11.614   5.182  25.203  0.00  0.00    -0.295 N 
ATOM      5  H   THR A   3      11.258   5.971  24.626  0.00  0.00    +0.150 HD
BRANCH   2   6
ATOM      6  CA  VAL A   2      13.698   5.354  23.901  0.00  0.00    +0.148 C 
BRANCH   6   8
ATOM      7  C   CYS A   1      15.037   7.373  24.090  0.00  0.00    +0.239 C 
ATOM      8  N   VAL A   2      14.965   6.053  24.261  0.00  0.00    -0.297 N 
ATOM      9  H   VAL A   2      15.776   5.522  24.638  0.00  0.00    +0.150 HD
ATOM     10  O   CYS A   1      14.037   8.037  24.017  0.00  0.00    -0.274 OA
BRANCH   7  11
ATOM     11  CA  CYS A   1      16.403   7.971  23.955  0.00  0.00    +0.156 C 
BRANCH  11  12
ATOM     12  N   CYS A   1      17.468   6.924  24.094  0.00  0.00    -0.237 NA
ATOM     13  H   CYS A   1      17.480   6.105  23.453  0.00  0.00    +0.142 HD
ENDBRANCH  11  12
BRANCH  11  14
ATOM     14  CB  CYS A   1      16.395   8.603  22.567  0.00  0.00    +0.095 C 
ATOM     15  SG  CYS A   1      17.868   8.931  21.765  0.00  0.00    -0.080 S 
ENDBRANCH  11  14
ENDBRANCH   7  11
ENDBRANCH   6   8
BRANCH   6  16
ATOM     16  CB  VAL A   2      14.012   4.055  23.094  0.00  0.00    +0.027 C 
ATOM     17  CG2 VAL A   2      12.683   3.316  22.722  0.00  0.00    +0.002 C 
ATOM     18  CG1 VAL A   2      14.783   4.380  21.771  0.00  0.00    +0.002 C 
ENDBRANCH   6  16
ENDBRANCH   2   6
ENDBRANCH   1   4
BRANCH   1  19
ATOM     19  C   THR A   3      10.215   3.303  25.259  0.00  0.00    +0.243 C 
ATOM     20  N   TRP A   4      10.560   2.068  25.667  0.00  0.00    -0.298 N 
ATOM     21  H   TRP A   4      11.153   1.954  26.514  0.00  0.00    +0.150 HD
ATOM     22  O   THR A   3       9.511   3.503  24.232  0.00  0.00    -0.273 OA
BRANCH  20  23
ATOM     23  CA  TRP A   4      10.117   0.896  24.943  0.00  0.00    +0.141 C 
BRANCH  23  24
ATOM     24  C   TRP A   4       8.773   0.453  25.467  0.00  0.00    +0.227 C 
ATOM     25  O   TRP A   4       8.541   0.430  26.670  0.00  0.00    -0.286 OA
ENDBRANCH  23  24
BRANCH  23  26
ATOM     26  CB  TRP A   4      11.125  -0.253  25.146  0.00  0.00    +0.056 C 
BRANCH  26  27
ATOM     27  CG  TRP A   4      12.246  -0.161  24.181  0.00  0.00    -0.002 A 
ATOM     28  CD1 TRP A   4      13.500   0.387  24.348  0.00  0.00    +0.068 A 
ATOM     29  NE1 TRP A   4      14.215   0.369  23.155  0.00  0.00    -0.352 N 
ATOM     30  HE1 TRP A   4      15.172   0.753  23.017  0.00  0.00    +0.166 HD
ATOM     31  CE2 TRP A   4      13.438  -0.250  22.171  0.00  0.00    +0.056 A 
ATOM     32  CZ2 TRP A   4      13.722  -0.567  20.831  0.00  0.00    +0.017 A 
ATOM     33  CH2 TRP A   4      12.707  -1.127  20.107  0.00  0.00    +0.001 A 
ATOM     34  CZ3 TRP A   4      11.455  -1.453  20.710  0.00  0.00    +0.000 A 
ATOM     35  CE3 TRP A   4      11.193  -1.165  22.002  0.00  0.00    +0.001 A 
ATOM     36  CD2 TRP A   4      12.178  -0.554  22.774  0.00  0.00    +0.013 A 
ENDBRANCH  26  27
ENDBRANCH  23  26
ENDBRANCH  20  23
ENDBRANCH   1  19
BRANCH   1  37
ATOM     37  CB  THR A   3       9.503   5.358  26.512  0.00  0.00    +0.137 C 
ATOM     38  CG2 THR A   3       8.587   4.563  27.403  0.00  0.00    +0.034 C 
BRANCH  37  39
ATOM     39  OG1 THR A   3      10.054   6.471  27.280  0.00  0.00    -0.382 OA
ATOM     40  HG1 THR A   3       9.317   7.061  27.579  0.00  0.00    +0.210 HD
ENDBRANCH  37  39
ENDBRANCH   1  37
TORSDOF 14
REMARK  Name = ../refined-set-2016/4q83/4q83_pocket.pdb
REMARK  150 active torsions:
REMARK  status: ('A' for Active; 'I' for Inactive)
REMARK    1  A    between atoms: _1  and  _3
REMARK    2  A    between atoms: _3  and  _4
REMARK    3  A    between atoms: _3  and  _6
REMARK    4  A    between atoms: _6  and  _7
REMARK    5  A    between atoms: _17  and  _19
REMARK    6  A    between atoms: _19  and  _20
REMARK    7  A    between atoms: _19  and  _22
REMARK    8  A    between atoms: _22  and  _23
REMARK    9  A    between atoms: _28  and  _29
REMARK   10  A    between atoms: _31  and  _33
REMARK   11  A    between atoms: _33  and  _34
REMARK   12  A    between atoms: _33  and  _36
REMARK   13  A    between atoms: _36  and  _37
REMARK   14  A    between atoms: _39  and  _41
REMARK   15  A    between atoms: _41  and  _42
REMARK   16  A    between atoms: _41  and  _44
REMARK   17  A    between atoms: _44  and  _45
REMARK   18  A    between atoms: _50  and  _52
REMARK   19  A    between atoms: _52  and  _53
REMARK   20  A    between atoms: _52  and  _55
REMARK   21  A    between atoms: _55  and  _56
REMARK   22  A    between atoms: _61  and  _63
REMARK   23  A    between atoms: _63  and  _64
REMARK   24  A    between atoms: _67  and  _69
REMARK   25  A    between atoms: _69  and  _70
REMARK   26  A    between atoms: _69  and  _72
REMARK   27  A    between atoms: _72  and  _73
REMARK   28  A    between atoms: _78  and  _80
REMARK   29  A    between atoms: _80  and  _81
REMARK   30  A    between atoms: _80  and  _83
REMARK   31  A    between atoms: _83  and  _84
REMARK   32  A    between atoms: _87  and  _89
REMARK   33  A    between atoms: _89  and  _90
REMARK   34  A    between atoms: _89  and  _92
REMARK   35  A    between atoms: _92  and  _93
REMARK   36  A    between atoms: _93  and  _94
REMARK   37  A    between atoms: _99  and  _101
REMARK   38  A    between atoms: _101  and  _102
REMARK   39  A    between atoms: _101  and  _104
REMARK   40  A    between atoms: _104  and  _105
REMARK   41  A    between atoms: _111  and  _113
REMARK   42  A    between atoms: _124  and  _127
REMARK   43  A    between atoms: _127  and  _128
REMARK   44  A    between atoms: _136  and  _137
REMARK   45  A    between atoms: _145  and  _147
REMARK   46  A    between atoms: _147  and  _148
REMARK   47  A    between atoms: _147  and  _150
REMARK   48  A    between atoms: _150  and  _151
REMARK   49  A    between atoms: _151  and  _152
REMARK   50  A    between atoms: _155  and  _157
REMARK   51  A    between atoms: _157  and  _158
REMARK   52  A    between atoms: _157  and  _160
REMARK   53  A    between atoms: _160  and  _161
REMARK   54  A    between atoms: _166  and  _168
REMARK   55  A    between atoms: _168  and  _169
REMARK   56  A    between atoms: _168  and  _171
REMARK   57  A    between atoms: _171  and  _172
REMARK   58  A    between atoms: _172  and  _173
REMARK   59  A    between atoms: _176  and  _178
REMARK   60  A    between atoms: _178  and  _179
REMARK   61  A    between atoms: _178  and  _181
REMARK   62  A    between atoms: _181  and  _182
REMARK   63  A    between atoms: _185  and  _187
REMARK   64  A    between atoms: _187  and  _188
REMARK   65  A    between atoms: _187  and  _190
REMARK   66  A    between atoms: _190  and  _191
REMARK   67  A    between atoms: _192  and  ZN_416
REMARK   68  A    between atoms: _196  and  _198
REMARK   69  A    between atoms: _198  and  _199
REMARK   70  A    between atoms: _198  and  _201
REMARK   71  A    between atoms: _201  and  _202
REMARK   72  A    between atoms: _205  and  _207
REMARK   73  A    between atoms: _207  and  _208
REMARK   74  A    between atoms: _207  and  _210
REMARK   75  A    between atoms: _213  and  _215
REMARK   76  A    between atoms: _215  and  _216
REMARK   77  A    between atoms: _215  and  _218
REMARK   78  A    between atoms: _218  and  _219
REMARK   79  A    between atoms: _224  and  _226
REMARK   80  A    between atoms: _226  and  _227
REMARK   81  A    between atoms: _226  and  _229
REMARK   82  A    between atoms: _229  and  _230
REMARK   83  A    between atoms: _236  and  _238
REMARK   84  A    between atoms: _238  and  _239
REMARK   85  A    between atoms: _238  and  _241
REMARK   86  A    between atoms: _244  and  _246
REMARK   87  A    between atoms: _246  and  _247
REMARK   88  A    between atoms: _246  and  _249
REMARK   89  A    between atoms: _249  and  _250
REMARK   90  A    between atoms: _253  and  _255
REMARK   91  A    between atoms: _255  and  _256
REMARK   92  A    between atoms: _259  and  _261
REMARK   93  A    between atoms: _261  and  _262
REMARK   94  A    between atoms: _261  and  _264
REMARK   95  A    between atoms: _267  and  _269
REMARK   96  A    between atoms: _269  and  _270
REMARK   97  A    between atoms: _269  and  _272
REMARK   98  A    between atoms: _272  and  _273
REMARK   99  A    between atoms: _276  and  _278
REMARK  100  A    between atoms: _278  and  _279
REMARK  101  A    between atoms: _281  and  _283
REMARK  102  A    between atoms: _283  and  _284
REMARK  103  A    between atoms: _283  and  _286
REMARK  104  A    between atoms: _286  and  _287
REMARK  105  A    between atoms: _289  and  _291
REMARK  106  A    between atoms: _291  and  _292
REMARK  107  A    between atoms: _291  and  _294
REMARK  108  A    between atoms: _294  and  _295
REMARK  109  A    between atoms: _298  and  _300
REMARK  110  A    between atoms: _300  and  _301
REMARK  111  A    between atoms: _300  and  _303
REMARK  112  A    between atoms: _303  and  _304
REMARK  113  A    between atoms: _307  and  _309
REMARK  114  A    between atoms: _309  and  _310
REMARK  115  A    between atoms: _309  and  _312
REMARK  116  A    between atoms: _312  and  _313
REMARK  117  A    between atoms: _317  and  _318
REMARK  118  A    between atoms: _324  and  _325
REMARK  119  A    between atoms: _330  and  _332
REMARK  120  A    between atoms: _332  and  _333
REMARK  121  A    between atoms: _332  and  _335
REMARK  122  A    between atoms: _335  and  _336
REMARK  123  A    between atoms: _339  and  _341
REMARK  124  A    between atoms: _341  and  _342
REMARK  125  A    between atoms: _341  and  _344
REMARK  126  A    between atoms: _344  and  _345
REMARK  127  A    between atoms: _348  and  _350
REMARK  128  A    between atoms: _350  and  _351
REMARK  129  A    between atoms: _350  and  _353
REMARK  130  A    between atoms: _355  and  _357
REMARK  131  A    between atoms: _357  and  _358
REMARK  132  A    between atoms: _357  and  _360
REMARK  133  A    between atoms: _363  and  _365
REMARK  134  A    between atoms: _365  and  _366
REMARK  135  A    between atoms: _365  and  _368
REMARK  136  A    between atoms: _368  and  _369
REMARK  137  A    between atoms: _372  and  _374
REMARK  138  A    between atoms: _374  and  _375
REMARK  139  A    between atoms: _374  and  _377
REMARK  140  A    between atoms: _377  and  _378
REMARK  141  A    between atoms: _388  and  _390
REMARK  142  A    between atoms: _390  and  _391
REMARK  143  A    between atoms: _390  and  _393
REMARK  144  A    between atoms: _393  and  _394
REMARK  145  A    between atoms: _399  and  _401
REMARK  146  A    between atoms: _401  and  _402
REMARK  147  A    between atoms: _401  and  _404
REMARK  148  A    between atoms: _404  and  _405
REMARK  149  A    between atoms: _405  and  _406
REMARK  150  A    between atoms: _406  and  _407
REMARK                            x       y       z     vdW  Elec       q    Type
REMARK                         _______ _______ _______ _____ _____    ______ ____
ROOT
ATOM      1  CB  ASN A   1      19.076  -7.397  10.472  0.00  0.00    +0.104 C 
ENDROOT
BRANCH   1   2
ATOM      2  CG  ASN A   1      17.590  -7.565  10.234  0.00  0.00    +0.221 C 
ATOM      3  OD1 ASN A   1      16.950  -8.399  10.865  0.00  0.00    -0.275 OA
ATOM      4  ND2 ASN A   1      17.015  -6.691   9.410  0.00  0.00    -0.329 N 
ATOM      5 HD21 ASN A   1      15.983  -6.699   9.282  0.00  0.00    +0.145 HD
ATOM      6 HD22 ASN A   1      17.598  -6.001   8.895  0.00  0.00    +0.145 HD
ENDBRANCH   1   2
BRANCH   1   7
ATOM      7  CA  ASN A   1      19.598  -8.320  11.620  0.00  0.00    +0.110 C 
BRANCH   7   8
ATOM      8  N   ASN A   1      19.273  -9.720  11.349  0.00  0.00    -0.244 NA
ATOM      9  H   ASN A   1      18.360  -9.974  10.921  0.00  0.00    +0.141 HD
ENDBRANCH   7   8
BRANCH   7  10
ATOM     10  C   ASN A   1      19.066  -7.890  12.973  0.00  0.00    +0.199 C 
ATOM     11  O   ASN A   1      18.407  -6.791  13.117  0.00  0.00    -0.219 OA
ENDBRANCH   7  10
ENDBRANCH   1   7
TORSDOF 4
REMARK  Name = ../refined-set-2016/4q83/4q83_pocket.pdb
REMARK  150 active torsions:
REMARK  status: ('A' for Active; 'I' for Inactive)
REMARK    1  A    between atoms: _1  and  _3
REMARK    2  A    between atoms: _3  and  _4
REMARK    3  A    between atoms: _3  and  _6
REMARK    4  A    between atoms: _6  and  _7
REMARK    5  A    between atoms: _17  and  _19
REMARK    6  A    between atoms: _19  and  _20
REMARK    7  A    between atoms: _19  and  _22
REMARK    8  A    between atoms: _22  and  _23
REMARK    9  A    between atoms: _28  and  _29
REMARK   10  A    between atoms: _31  and  _33
REMARK   11  A    between atoms: _33  and  _34
REMARK   12  A    between atoms: _33  and  _36
REMARK   13  A    between atoms: _36  and  _37
REMARK   14  A    between atoms: _39  and  _41
REMARK   15  A    between atoms: _41  and  _42
REMARK   16  A    between atoms: _41  and  _44
REMARK   17  A    between atoms: _44  and  _45
REMARK   18  A    between atoms: _50  and  _52
REMARK   19  A    between atoms: _52  and  _53
REMARK   20  A    between atoms: _52  and  _55
REMARK   21  A    between atoms: _55  and  _56
REMARK   22  A    between atoms: _61  and  _63
REMARK   23  A    between atoms: _63  and  _64
REMARK   24  A    between atoms: _67  and  _69
REMARK   25  A    between atoms: _69  and  _70
REMARK   26  A    between atoms: _69  and  _72
REMARK   27  A    between atoms: _72  and  _73
REMARK   28  A    between atoms: _78  and  _80
REMARK   29  A    between atoms: _80  and  _81
REMARK   30  A    between atoms: _80  and  _83
REMARK   31  A    between atoms: _83  and  _84
REMARK   32  A    between atoms: _87  and  _89
REMARK   33  A    between atoms: _89  and  _90
REMARK   34  A    between atoms: _89  and  _92
REMARK   35  A    between atoms: _92  and  _93
REMARK   36  A    between atoms: _93  and  _94
REMARK   37  A    between atoms: _99  and  _101
REMARK   38  A    between atoms: _101  and  _102
REMARK   39  A    between atoms: _101  and  _104
REMARK   40  A    between atoms: _104  and  _105
REMARK   41  A    between atoms: _111  and  _113
REMARK   42  A    between atoms: _124  and  _127
REMARK   43  A    between atoms: _127  and  _128
REMARK   44  A    between atoms: _136  and  _137
REMARK   45  A    between atoms: _145  and  _147
REMARK   46  A    between atoms: _147  and  _148
REMARK   47  A    between atoms: _147  and  _150
REMARK   48  A    between atoms: _150  and  _151
REMARK   49  A    between atoms: _151  and  _152
REMARK   50  A    between atoms: _155  and  _157
REMARK   51  A    between atoms: _157  and  _158
REMARK   52  A    between atoms: _157  and  _160
REMARK   53  A    between atoms: _160  and  _161
REMARK   54  A    between atoms: _166  and  _168
REMARK   55  A    between atoms: _168  and  _169
REMARK   56  A    between atoms: _168  and  _171
REMARK   57  A    between atoms: _171  and  _172
REMARK   58  A    between atoms: _172  and  _173
REMARK   59  A    between atoms: _176  and  _178
REMARK   60  A    between atoms: _178  and  _179
REMARK   61  A    between atoms: _178  and  _181
REMARK   62  A    between atoms: _181  and  _182
REMARK   63  A    between atoms: _185  and  _187
REMARK   64  A    between atoms: _187  and  _188
REMARK   65  A    between atoms: _187  and  _190
REMARK   66  A    between atoms: _190  and  _191
REMARK   67  A    between atoms: _192  and  ZN_416
REMARK   68  A    between atoms: _196  and  _198
REMARK   69  A    between atoms: _198  and  _199
REMARK   70  A    between atoms: _198  and  _201
REMARK   71  A    between atoms: _201  and  _202
REMARK   72  A    between atoms: _205  and  _207
REMARK   73  A    between atoms: _207  and  _208
REMARK   74  A    between atoms: _207  and  _210
REMARK   75  A    between atoms: _213  and  _215
REMARK   76  A    between atoms: _215  and  _216
REMARK   77  A    between atoms: _215  and  _218
REMARK   78  A    between atoms: _218  and  _219
REMARK   79  A    between atoms: _224  and  _226
REMARK   80  A    between atoms: _226  and  _227
REMARK   81  A    between atoms: _226  and  _229
REMARK   82  A    between atoms: _229  and  _230
REMARK   83  A    between atoms: _236  and  _238
REMARK   84  A    between atoms: _238  and  _239
REMARK   85  A    between atoms: _238  and  _241
REMARK   86  A    between atoms: _244  and  _246
REMARK   87  A    between atoms: _246  and  _247
REMARK   88  A    between atoms: _246  and  _249
REMARK   89  A    between atoms: _249  and  _250
REMARK   90  A    between atoms: _253  and  _255
REMARK   91  A    between atoms: _255  and  _256
REMARK   92  A    between atoms: _259  and  _261
REMARK   93  A    between atoms: _261  and  _262
REMARK   94  A    between atoms: _261  and  _264
REMARK   95  A    between atoms: _267  and  _269
REMARK   96  A    between atoms: _269  and  _270
REMARK   97  A    between atoms: _269  and  _272
REMARK   98  A    between atoms: _272  and  _273
REMARK   99  A    between atoms: _276  and  _278
REMARK  100  A    between atoms: _278  and  _279
REMARK  101  A    between atoms: _281  and  _283
REMARK  102  A    between atoms: _283  and  _284
REMARK  103  A    between atoms: _283  and  _286
REMARK  104  A    between atoms: _286  and  _287
REMARK  105  A    between atoms: _289  and  _291
REMARK  106  A    between atoms: _291  and  _292
REMARK  107  A    between atoms: _291  and  _294
REMARK  108  A    between atoms: _294  and  _295
REMARK  109  A    between atoms: _298  and  _300
REMARK  110  A    between atoms: _300  and  _301
REMARK  111  A    between atoms: _300  and  _303
REMARK  112  A    between atoms: _303  and  _304
REMARK  113  A    between atoms: _307  and  _309
REMARK  114  A    between atoms: _309  and  _310
REMARK  115  A    between atoms: _309  and  _312
REMARK  116  A    between atoms: _312  and  _313
REMARK  117  A    between atoms: _317  and  _318
REMARK  118  A    between atoms: _324  and  _325
REMARK  119  A    between atoms: _330  and  _332
REMARK  120  A    between atoms: _332  and  _333
REMARK  121  A    between atoms: _332  and  _335
REMARK  122  A    between atoms: _335  and  _336
REMARK  123  A    between atoms: _339  and  _341
REMARK  124  A    between atoms: _341  and  _342
REMARK  125  A    between atoms: _341  and  _344
REMARK  126  A    between atoms: _344  and  _345
REMARK  127  A    between atoms: _348  and  _350
REMARK  128  A    between atoms: _350  and  _351
REMARK  129  A    between atoms: _350  and  _353
REMARK  130  A    between atoms: _355  and  _357
REMARK  131  A    between atoms: _357  and  _358
REMARK  132  A    between atoms: _357  and  _360
REMARK  133  A    between atoms: _363  and  _365
REMARK  134  A    between atoms: _365  and  _366
REMARK  135  A    between atoms: _365  and  _368
REMARK  136  A    between atoms: _368  and  _369
REMARK  137  A    between atoms: _372  and  _374
REMARK  138  A    between atoms: _374  and  _375
REMARK  139  A    between atoms: _374  and  _377
REMARK  140  A    between atoms: _377  and  _378
REMARK  141  A    between atoms: _388  and  _390
REMARK  142  A    between atoms: _390  and  _391
REMARK  143  A    between atoms: _390  and  _393
REMARK  144  A    between atoms: _393  and  _394
REMARK  145  A    between atoms: _399  and  _401
REMARK  146  A    between atoms: _401  and  _402
REMARK  147  A    between atoms: _401  and  _404
REMARK  148  A    between atoms: _404  and  _405
REMARK  149  A    between atoms: _405  and  _406
REMARK  150  A    between atoms: _406  and  _407
REMARK                            x       y       z     vdW  Elec       q    Type
REMARK                         _______ _______ _______ _____ _____    ______ ____
ROOT
ATOM      1  NE  ARG A   1      23.389  -4.039  21.222  0.00  0.00    -0.265 N 
ATOM      2  CZ  ARG A   1      23.563  -3.020  22.063  0.00  0.00    +0.342 C 
ATOM      3  NH2 ARG A   1      24.806  -2.777  22.500  0.00  0.00    -0.292 N 
ATOM      4 HH21 ARG A   1      24.982  -1.990  23.157  0.00  0.00    +0.255 HD
ATOM      5 HH22 ARG A   1      25.595  -3.375  22.182  0.00  0.00    +0.255 HD
ATOM      6  NH1 ARG A   1      22.541  -2.216  22.416  0.00  0.00    -0.292 N 
ATOM      7 HH11 ARG A   1      22.703  -1.427  23.074  0.00  0.00    +0.255 HD
ATOM      8 HH12 ARG A   1      21.590  -2.384  22.030  0.00  0.00    +0.255 HD
ATOM      9  HE  ARG A   1      24.193  -4.672  21.037  0.00  0.00    +0.259 HD
ENDROOT
BRANCH   1  10
ATOM     10  CD  ARG A   1      22.086  -4.316  20.529  0.00  0.00    +0.174 C 
BRANCH  10  11
ATOM     11  CG  ARG A   1      22.173  -5.698  19.913  0.00  0.00    +0.045 C 
BRANCH  11  12
ATOM     12  CB  ARG A   1      21.089  -5.961  18.816  0.00  0.00    +0.029 C 
BRANCH  12  13
ATOM     13  CA  ARG A   1      20.946  -7.440  18.390  0.00  0.00    +0.133 C 
BRANCH  13  14
ATOM     14  N   ARG A   1      19.990  -7.492  17.277  0.00  0.00    -0.239 NA
ATOM     15  H   ARG A   1      19.202  -6.814  17.241  0.00  0.00    +0.142 HD
ENDBRANCH  13  14
BRANCH  13  16
ATOM     16  C   ARG A   1      20.467  -8.330  19.529  0.00  0.00    +0.224 C 
ATOM     17  O   ARG A   1      19.279  -8.335  19.866  0.00  0.00    -0.287 OA
ENDBRANCH  13  16
ENDBRANCH  12  13
ENDBRANCH  11  12
ENDBRANCH  10  11
ENDBRANCH   1  10
TORSDOF 6
REMARK  Name = ../refined-set-2016/4q83/4q83_pocket.pdb
REMARK  150 active torsions:
REMARK  status: ('A' for Active; 'I' for Inactive)
REMARK    1  A    between atoms: _1  and  _3
REMARK    2  A    between atoms: _3  and  _4
REMARK    3  A    between atoms: _3  and  _6
REMARK    4  A    between atoms: _6  and  _7
REMARK    5  A    between atoms: _17  and  _19
REMARK    6  A    between atoms: _19  and  _20
REMARK    7  A    between atoms: _19  and  _22
REMARK    8  A    between atoms: _22  and  _23
REMARK    9  A    between atoms: _28  and  _29
REMARK   10  A    between atoms: _31  and  _33
REMARK   11  A    between atoms: _33  and  _34
REMARK   12  A    between atoms: _33  and  _36
REMARK   13  A    between atoms: _36  and  _37
REMARK   14  A    between atoms: _39  and  _41
REMARK   15  A    between atoms: _41  and  _42
REMARK   16  A    between atoms: _41  and  _44
REMARK   17  A    between atoms: _44  and  _45
REMARK   18  A    between atoms: _50  and  _52
REMARK   19  A    between atoms: _52  and  _53
REMARK   20  A    between atoms: _52  and  _55
REMARK   21  A    between atoms: _55  and  _56
REMARK   22  A    between atoms: _61  and  _63
REMARK   23  A    between atoms: _63  and  _64
REMARK   24  A    between atoms: _67  and  _69
REMARK   25  A    between atoms: _69  and  _70
REMARK   26  A    between atoms: _69  and  _72
REMARK   27  A    between atoms: _72  and  _73
REMARK   28  A    between atoms: _78  and  _80
REMARK   29  A    between atoms: _80  and  _81
REMARK   30  A    between atoms: _80  and  _83
REMARK   31  A    between atoms: _83  and  _84
REMARK   32  A    between atoms: _87  and  _89
REMARK   33  A    between atoms: _89  and  _90
REMARK   34  A    between atoms: _89  and  _92
REMARK   35  A    between atoms: _92  and  _93
REMARK   36  A    between atoms: _93  and  _94
REMARK   37  A    between atoms: _99  and  _101
REMARK   38  A    between atoms: _101  and  _102
REMARK   39  A    between atoms: _101  and  _104
REMARK   40  A    between atoms: _104  and  _105
REMARK   41  A    between atoms: _111  and  _113
REMARK   42  A    between atoms: _124  and  _127
REMARK   43  A    between atoms: _127  and  _128
REMARK   44  A    between atoms: _136  and  _137
REMARK   45  A    between atoms: _145  and  _147
REMARK   46  A    between atoms: _147  and  _148
REMARK   47  A    between atoms: _147  and  _150
REMARK   48  A    between atoms: _150  and  _151
REMARK   49  A    between atoms: _151  and  _152
REMARK   50  A    between atoms: _155  and  _157
REMARK   51  A    between atoms: _157  and  _158
REMARK   52  A    between atoms: _157  and  _160
REMARK   53  A    between atoms: _160  and  _161
REMARK   54  A    between atoms: _166  and  _168
REMARK   55  A    between atoms: _168  and  _169
REMARK   56  A    between atoms: _168  and  _171
REMARK   57  A    between atoms: _171  and  _172
REMARK   58  A    between atoms: _172  and  _173
REMARK   59  A    between atoms: _176  and  _178
REMARK   60  A    between atoms: _178  and  _179
REMARK   61  A    between atoms: _178  and  _181
REMARK   62  A    between atoms: _181  and  _182
REMARK   63  A    between atoms: _185  and  _187
REMARK   64  A    between atoms: _187  and  _188
REMARK   65  A    between atoms: _187  and  _190
REMARK   66  A    between atoms: _190  and  _191
REMARK   67  A    between atoms: _192  and  ZN_416
REMARK   68  A    between atoms: _196  and  _198
REMARK   69  A    between atoms: _198  and  _199
REMARK   70  A    between atoms: _198  and  _201
REMARK   71  A    between atoms: _201  and  _202
REMARK   72  A    between atoms: _205  and  _207
REMARK   73  A    between atoms: _207  and  _208
REMARK   74  A    between atoms: _207  and  _210
REMARK   75  A    between atoms: _213  and  _215
REMARK   76  A    between atoms: _215  and  _216
REMARK   77  A    between atoms: _215  and  _218
REMARK   78  A    between atoms: _218  and  _219
REMARK   79  A    between atoms: _224  and  _226
REMARK   80  A    between atoms: _226  and  _227
REMARK   81  A    between atoms: _226  and  _229
REMARK   82  A    between atoms: _229  and  _230
REMARK   83  A    between atoms: _236  and  _238
REMARK   84  A    between atoms: _238  and  _239
REMARK   85  A    between atoms: _238  and  _241
REMARK   86  A    between atoms: _244  and  _246
REMARK   87  A    between atoms: _246  and  _247
REMARK   88  A    between atoms: _246  and  _249
REMARK   89  A    between atoms: _249  and  _250
REMARK   90  A    between atoms: _253  and  _255
REMARK   91  A    between atoms: _255  and  _256
REMARK   92  A    between atoms: _259  and  _261
REMARK   93  A    between atoms: _261  and  _262
REMARK   94  A    between atoms: _261  and  _264
REMARK   95  A    between atoms: _267  and  _269
REMARK   96  A    between atoms: _269  and  _270
REMARK   97  A    between atoms: _269  and  _272
REMARK   98  A    between atoms: _272  and  _273
REMARK   99  A    between atoms: _276  and  _278
REMARK  100  A    between atoms: _278  and  _279
REMARK  101  A    between atoms: _281  and  _283
REMARK  102  A    between atoms: _283  and  _284
REMARK  103  A    between atoms: _283  and  _286
REMARK  104  A    between atoms: _286  and  _287
REMARK  105  A    between atoms: _289  and  _291
REMARK  106  A    between atoms: _291  and  _292
REMARK  107  A    between atoms: _291  and  _294
REMARK  108  A    between atoms: _294  and  _295
REMARK  109  A    between atoms: _298  and  _300
REMARK  110  A    between atoms: _300  and  _301
REMARK  111  A    between atoms: _300  and  _303
REMARK  112  A    between atoms: _303  and  _304
REMARK  113  A    between atoms: _307  and  _309
REMARK  114  A    between atoms: _309  and  _310
REMARK  115  A    between atoms: _309  and  _312
REMARK  116  A    between atoms: _312  and  _313
REMARK  117  A    between atoms: _317  and  _318
REMARK  118  A    between atoms: _324  and  _325
REMARK  119  A    between atoms: _330  and  _332
REMARK  120  A    between atoms: _332  and  _333
REMARK  121  A    between atoms: _332  and  _335
REMARK  122  A    between atoms: _335  and  _336
REMARK  123  A    between atoms: _339  and  _341
REMARK  124  A    between atoms: _341  and  _342
REMARK  125  A    between atoms: _341  and  _344
REMARK  126  A    between atoms: _344  and  _345
REMARK  127  A    between atoms: _348  and  _350
REMARK  128  A    between atoms: _350  and  _351
REMARK  129  A    between atoms: _350  and  _353
REMARK  130  A    between atoms: _355  and  _357
REMARK  131  A    between atoms: _357  and  _358
REMARK  132  A    between atoms: _357  and  _360
REMARK  133  A    between atoms: _363  and  _365
REMARK  134  A    between atoms: _365  and  _366
REMARK  135  A    between atoms: _365  and  _368
REMARK  136  A    between atoms: _368  and  _369
REMARK  137  A    between atoms: _372  and  _374
REMARK  138  A    between atoms: _374  and  _375
REMARK  139  A    between atoms: _374  and  _377
REMARK  140  A    between atoms: _377  and  _378
REMARK  141  A    between atoms: _388  and  _390
REMARK  142  A    between atoms: _390  and  _391
REMARK  143  A    between atoms: _390  and  _393
REMARK  144  A    between atoms: _393  and  _394
REMARK  145  A    between atoms: _399  and  _401
REMARK  146  A    between atoms: _401  and  _402
REMARK  147  A    between atoms: _401  and  _404
REMARK  148  A    between atoms: _404  and  _405
REMARK  149  A    between atoms: _405  and  _406
REMARK  150  A    between atoms: _406  and  _407
REMARK                            x       y       z     vdW  Elec       q    Type
REMARK                         _______ _______ _______ _____ _____    ______ ____
ROOT
ATOM      1  O   HOH     1      19.822  -4.286  15.832  0.00  0.00    +0.000 OA
ENDROOT
TORSDOF 0
REMARK  Name = ../refined-set-2016/4q83/4q83_pocket.pdb
REMARK  150 active torsions:
REMARK  status: ('A' for Active; 'I' for Inactive)
REMARK    1  A    between atoms: _1  and  _3
REMARK    2  A    between atoms: _3  and  _4
REMARK    3  A    between atoms: _3  and  _6
REMARK    4  A    between atoms: _6  and  _7
REMARK    5  A    between atoms: _17  and  _19
REMARK    6  A    between atoms: _19  and  _20
REMARK    7  A    between atoms: _19  and  _22
REMARK    8  A    between atoms: _22  and  _23
REMARK    9  A    between atoms: _28  and  _29
REMARK   10  A    between atoms: _31  and  _33
REMARK   11  A    between atoms: _33  and  _34
REMARK   12  A    between atoms: _33  and  _36
REMARK   13  A    between atoms: _36  and  _37
REMARK   14  A    between atoms: _39  and  _41
REMARK   15  A    between atoms: _41  and  _42
REMARK   16  A    between atoms: _41  and  _44
REMARK   17  A    between atoms: _44  and  _45
REMARK   18  A    between atoms: _50  and  _52
REMARK   19  A    between atoms: _52  and  _53
REMARK   20  A    between atoms: _52  and  _55
REMARK   21  A    between atoms: _55  and  _56
REMARK   22  A    between atoms: _61  and  _63
REMARK   23  A    between atoms: _63  and  _64
REMARK   24  A    between atoms: _67  and  _69
REMARK   25  A    between atoms: _69  and  _70
REMARK   26  A    between atoms: _69  and  _72
REMARK   27  A    between atoms: _72  and  _73
REMARK   28  A    between atoms: _78  and  _80
REMARK   29  A    between atoms: _80  and  _81
REMARK   30  A    between atoms: _80  and  _83
REMARK   31  A    between atoms: _83  and  _84
REMARK   32  A    between atoms: _87  and  _89
REMARK   33  A    between atoms: _89  and  _90
REMARK   34  A    between atoms: _89  and  _92
REMARK   35  A    between atoms: _92  and  _93
REMARK   36  A    between atoms: _93  and  _94
REMARK   37  A    between atoms: _99  and  _101
REMARK   38  A    between atoms: _101  and  _102
REMARK   39  A    between atoms: _101  and  _104
REMARK   40  A    between atoms: _104  and  _105
REMARK   41  A    between atoms: _111  and  _113
REMARK   42  A    between atoms: _124  and  _127
REMARK   43  A    between atoms: _127  and  _128
REMARK   44  A    between atoms: _136  and  _137
REMARK   45  A    between atoms: _145  and  _147
REMARK   46  A    between atoms: _147  and  _148
REMARK   47  A    between atoms: _147  and  _150
REMARK   48  A    between atoms: _150  and  _151
REMARK   49  A    between atoms: _151  and  _152
REMARK   50  A    between atoms: _155  and  _157
REMARK   51  A    between atoms: _157  and  _158
REMARK   52  A    between atoms: _157  and  _160
REMARK   53  A    between atoms: _160  and  _161
REMARK   54  A    between atoms: _166  and  _168
REMARK   55  A    between atoms: _168  and  _169
REMARK   56  A    between atoms: _168  and  _171
REMARK   57  A    between atoms: _171  and  _172
REMARK   58  A    between atoms: _172  and  _173
REMARK   59  A    between atoms: _176  and  _178
REMARK   60  A    between atoms: _178  and  _179
REMARK   61  A    between atoms: _178  and  _181
REMARK   62  A    between atoms: _181  and  _182
REMARK   63  A    between atoms: _185  and  _187
REMARK   64  A    between atoms: _187  and  _188
REMARK   65  A    between atoms: _187  and  _190
REMARK   66  A    between atoms: _190  and  _191
REMARK   67  A    between atoms: _192  and  ZN_416
REMARK   68  A    between atoms: _196  and  _198
REMARK   69  A    between atoms: _198  and  _199
REMARK   70  A    between atoms: _198  and  _201
REMARK   71  A    between atoms: _201  and  _202
REMARK   72  A    between atoms: _205  and  _207
REMARK   73  A    between atoms: _207  and  _208
REMARK   74  A    between atoms: _207  and  _210
REMARK   75  A    between atoms: _213  and  _215
REMARK   76  A    between atoms: _215  and  _216
REMARK   77  A    between atoms: _215  and  _218
REMARK   78  A    between atoms: _218  and  _219
REMARK   79  A    between atoms: _224  and  _226
REMARK   80  A    between atoms: _226  and  _227
REMARK   81  A    between atoms: _226  and  _229
REMARK   82  A    between atoms: _229  and  _230
REMARK   83  A    between atoms: _236  and  _238
REMARK   84  A    between atoms: _238  and  _239
REMARK   85  A    between atoms: _238  and  _241
REMARK   86  A    between atoms: _244  and  _246
REMARK   87  A    between atoms: _246  and  _247
REMARK   88  A    between atoms: _246  and  _249
REMARK   89  A    between atoms: _249  and  _250
REMARK   90  A    between atoms: _253  and  _255
REMARK   91  A    between atoms: _255  and  _256
REMARK   92  A    between atoms: _259  and  _261
REMARK   93  A    between atoms: _261  and  _262
REMARK   94  A    between atoms: _261  and  _264
REMARK   95  A    between atoms: _267  and  _269
REMARK   96  A    between atoms: _269  and  _270
REMARK   97  A    between atoms: _269  and  _272
REMARK   98  A    between atoms: _272  and  _273
REMARK   99  A    between atoms: _276  and  _278
REMARK  100  A    between atoms: _278  and  _279
REMARK  101  A    between atoms: _281  and  _283
REMARK  102  A    between atoms: _283  and  _284
REMARK  103  A    between atoms: _283  and  _286
REMARK  104  A    between atoms: _286  and  _287
REMARK  105  A    between atoms: _289  and  _291
REMARK  106  A    between atoms: _291  and  _292
REMARK  107  A    between atoms: _291  and  _294
REMARK  108  A    between atoms: _294  and  _295
REMARK  109  A    between atoms: _298  and  _300
REMARK  110  A    between atoms: _300  and  _301
REMARK  111  A    between atoms: _300  and  _303
REMARK  112  A    between atoms: _303  and  _304
REMARK  113  A    between atoms: _307  and  _309
REMARK  114  A    between atoms: _309  and  _310
REMARK  115  A    between atoms: _309  and  _312
REMARK  116  A    between atoms: _312  and  _313
REMARK  117  A    between atoms: _317  and  _318
REMARK  118  A    between atoms: _324  and  _325
REMARK  119  A    between atoms: _330  and  _332
REMARK  120  A    between atoms: _332  and  _333
REMARK  121  A    between atoms: _332  and  _335
REMARK  122  A    between atoms: _335  and  _336
REMARK  123  A    between atoms: _339  and  _341
REMARK  124  A    between atoms: _341  and  _342
REMARK  125  A    between atoms: _341  and  _344
REMARK  126  A    between atoms: _344  and  _345
REMARK  127  A    between atoms: _348  and  _350
REMARK  128  A    between atoms: _350  and  _351
REMARK  129  A    between atoms: _350  and  _353
REMARK  130  A    between atoms: _355  and  _357
REMARK  131  A    between atoms: _357  and  _358
REMARK  132  A    between atoms: _357  and  _360
REMARK  133  A    between atoms: _363  and  _365
REMARK  134  A    between atoms: _365  and  _366
REMARK  135  A    between atoms: _365  and  _368
REMARK  136  A    between atoms: _368  and  _369
REMARK  137  A    between atoms: _372  and  _374
REMARK  138  A    between atoms: _374  and  _375
REMARK  139  A    between atoms: _374  and  _377
REMARK  140  A    between atoms: _377  and  _378
REMARK  141  A    between atoms: _388  and  _390
REMARK  142  A    between atoms: _390  and  _391
REMARK  143  A    between atoms: _390  and  _393
REMARK  144  A    between atoms: _393  and  _394
REMARK  145  A    between atoms: _399  and  _401
REMARK  146  A    between atoms: _401  and  _402
REMARK  147  A    between atoms: _401  and  _404
REMARK  148  A    between atoms: _404  and  _405
REMARK  149  A    between atoms: _405  and  _406
REMARK  150  A    between atoms: _406  and  _407
REMARK                            x       y       z     vdW  Elec       q    Type
REMARK                         _______ _______ _______ _____ _____    ______ ____
ROOT
ATOM      1  O   HOH     1      18.535  -3.563  11.442  0.00  0.00    +0.000 OA
ENDROOT
TORSDOF 0
REMARK  Name = ../refined-set-2016/4q83/4q83_pocket.pdb
REMARK  150 active torsions:
REMARK  status: ('A' for Active; 'I' for Inactive)
REMARK    1  A    between atoms: _1  and  _3
REMARK    2  A    between atoms: _3  and  _4
REMARK    3  A    between atoms: _3  and  _6
REMARK    4  A    between atoms: _6  and  _7
REMARK    5  A    between atoms: _17  and  _19
REMARK    6  A    between atoms: _19  and  _20
REMARK    7  A    between atoms: _19  and  _22
REMARK    8  A    between atoms: _22  and  _23
REMARK    9  A    between atoms: _28  and  _29
REMARK   10  A    between atoms: _31  and  _33
REMARK   11  A    between atoms: _33  and  _34
REMARK   12  A    between atoms: _33  and  _36
REMARK   13  A    between atoms: _36  and  _37
REMARK   14  A    between atoms: _39  and  _41
REMARK   15  A    between atoms: _41  and  _42
REMARK   16  A    between atoms: _41  and  _44
REMARK   17  A    between atoms: _44  and  _45
REMARK   18  A    between atoms: _50  and  _52
REMARK   19  A    between atoms: _52  and  _53
REMARK   20  A    between atoms: _52  and  _55
REMARK   21  A    between atoms: _55  and  _56
REMARK   22  A    between atoms: _61  and  _63
REMARK   23  A    between atoms: _63  and  _64
REMARK   24  A    between atoms: _67  and  _69
REMARK   25  A    between atoms: _69  and  _70
REMARK   26  A    between atoms: _69  and  _72
REMARK   27  A    between atoms: _72  and  _73
REMARK   28  A    between atoms: _78  and  _80
REMARK   29  A    between atoms: _80  and  _81
REMARK   30  A    between atoms: _80  and  _83
REMARK   31  A    between atoms: _83  and  _84
REMARK   32  A    between atoms: _87  and  _89
REMARK   33  A    between atoms: _89  and  _90
REMARK   34  A    between atoms: _89  and  _92
REMARK   35  A    between atoms: _92  and  _93
REMARK   36  A    between atoms: _93  and  _94
REMARK   37  A    between atoms: _99  and  _101
REMARK   38  A    between atoms: _101  and  _102
REMARK   39  A    between atoms: _101  and  _104
REMARK   40  A    between atoms: _104  and  _105
REMARK   41  A    between atoms: _111  and  _113
REMARK   42  A    between atoms: _124  and  _127
REMARK   43  A    between atoms: _127  and  _128
REMARK   44  A    between atoms: _136  and  _137
REMARK   45  A    between atoms: _145  and  _147
REMARK   46  A    between atoms: _147  and  _148
REMARK   47  A    between atoms: _147  and  _150
REMARK   48  A    between atoms: _150  and  _151
REMARK   49  A    between atoms: _151  and  _152
REMARK   50  A    between atoms: _155  and  _157
REMARK   51  A    between atoms: _157  and  _158
REMARK   52  A    between atoms: _157  and  _160
REMARK   53  A    between atoms: _160  and  _161
REMARK   54  A    between atoms: _166  and  _168
REMARK   55  A    between atoms: _168  and  _169
REMARK   56  A    between atoms: _168  and  _171
REMARK   57  A    between atoms: _171  and  _172
REMARK   58  A    between atoms: _172  and  _173
REMARK   59  A    between atoms: _176  and  _178
REMARK   60  A    between atoms: _178  and  _179
REMARK   61  A    between atoms: _178  and  _181
REMARK   62  A    between atoms: _181  and  _182
REMARK   63  A    between atoms: _185  and  _187
REMARK   64  A    between atoms: _187  and  _188
REMARK   65  A    between atoms: _187  and  _190
REMARK   66  A    between atoms: _190  and  _191
REMARK   67  A    between atoms: _192  and  ZN_416
REMARK   68  A    between atoms: _196  and  _198
REMARK   69  A    between atoms: _198  and  _199
REMARK   70  A    between atoms: _198  and  _201
REMARK   71  A    between atoms: _201  and  _202
REMARK   72  A    between atoms: _205  and  _207
REMARK   73  A    between atoms: _207  and  _208
REMARK   74  A    between atoms: _207  and  _210
REMARK   75  A    between atoms: _213  and  _215
REMARK   76  A    between atoms: _215  and  _216
REMARK   77  A    between atoms: _215  and  _218
REMARK   78  A    between atoms: _218  and  _219
REMARK   79  A    between atoms: _224  and  _226
REMARK   80  A    between atoms: _226  and  _227
REMARK   81  A    between atoms: _226  and  _229
REMARK   82  A    between atoms: _229  and  _230
REMARK   83  A    between atoms: _236  and  _238
REMARK   84  A    between atoms: _238  and  _239
REMARK   85  A    between atoms: _238  and  _241
REMARK   86  A    between atoms: _244  and  _246
REMARK   87  A    between atoms: _246  and  _247
REMARK   88  A    between atoms: _246  and  _249
REMARK   89  A    between atoms: _249  and  _250
REMARK   90  A    between atoms: _253  and  _255
REMARK   91  A    between atoms: _255  and  _256
REMARK   92  A    between atoms: _259  and  _261
REMARK   93  A    between atoms: _261  and  _262
REMARK   94  A    between atoms: _261  and  _264
REMARK   95  A    between atoms: _267  and  _269
REMARK   96  A    between atoms: _269  and  _270
REMARK   97  A    between atoms: _269  and  _272
REMARK   98  A    between atoms: _272  and  _273
REMARK   99  A    between atoms: _276  and  _278
REMARK  100  A    between atoms: _278  and  _279
REMARK  101  A    between atoms: _281  and  _283
REMARK  102  A    between atoms: _283  and  _284
REMARK  103  A    between atoms: _283  and  _286
REMARK  104  A    between atoms: _286  and  _287
REMARK  105  A    between atoms: _289  and  _291
REMARK  106  A    between atoms: _291  and  _292
REMARK  107  A    between atoms: _291  and  _294
REMARK  108  A    between atoms: _294  and  _295
REMARK  109  A    between atoms: _298  and  _300
REMARK  110  A    between atoms: _300  and  _301
REMARK  111  A    between atoms: _300  and  _303
REMARK  112  A    between atoms: _303  and  _304
REMARK  113  A    between atoms: _307  and  _309
REMARK  114  A    between atoms: _309  and  _310
REMARK  115  A    between atoms: _309  and  _312
REMARK  116  A    between atoms: _312  and  _313
REMARK  117  A    between atoms: _317  and  _318
REMARK  118  A    between atoms: _324  and  _325
REMARK  119  A    between atoms: _330  and  _332
REMARK  120  A    between atoms: _332  and  _333
REMARK  121  A    between atoms: _332  and  _335
REMARK  122  A    between atoms: _335  and  _336
REMARK  123  A    between atoms: _339  and  _341
REMARK  124  A    between atoms: _341  and  _342
REMARK  125  A    between atoms: _341  and  _344
REMARK  126  A    between atoms: _344  and  _345
REMARK  127  A    between atoms: _348  and  _350
REMARK  128  A    between atoms: _350  and  _351
REMARK  129  A    between atoms: _350  and  _353
REMARK  130  A    between atoms: _355  and  _357
REMARK  131  A    between atoms: _357  and  _358
REMARK  132  A    between atoms: _357  and  _360
REMARK  133  A    between atoms: _363  and  _365
REMARK  134  A    between atoms: _365  and  _366
REMARK  135  A    between atoms: _365  and  _368
REMARK  136  A    between atoms: _368  and  _369
REMARK  137  A    between atoms: _372  and  _374
REMARK  138  A    between atoms: _374  and  _375
REMARK  139  A    between atoms: _374  and  _377
REMARK  140  A    between atoms: _377  and  _378
REMARK  141  A    between atoms: _388  and  _390
REMARK  142  A    between atoms: _390  and  _391
REMARK  143  A    between atoms: _390  and  _393
REMARK  144  A    between atoms: _393  and  _394
REMARK  145  A    between atoms: _399  and  _401
REMARK  146  A    between atoms: _401  and  _402
REMARK  147  A    between atoms: _401  and  _404
REMARK  148  A    between atoms: _404  and  _405
REMARK  149  A    between atoms: _405  and  _406
REMARK  150  A    between atoms: _406  and  _407
REMARK                            x       y       z     vdW  Elec       q    Type
REMARK                         _______ _______ _______ _____ _____    ______ ____
ROOT
ATOM      1  O   HOH     1      16.678  -1.083  11.918  0.00  0.00    +0.000 OA
ENDROOT
TORSDOF 0
REMARK  Name = ../refined-set-2016/4q83/4q83_pocket.pdb
REMARK  150 active torsions:
REMARK  status: ('A' for Active; 'I' for Inactive)
REMARK    1  A    between atoms: _1  and  _3
REMARK    2  A    between atoms: _3  and  _4
REMARK    3  A    between atoms: _3  and  _6
REMARK    4  A    between atoms: _6  and  _7
REMARK    5  A    between atoms: _17  and  _19
REMARK    6  A    between atoms: _19  and  _20
REMARK    7  A    between atoms: _19  and  _22
REMARK    8  A    between atoms: _22  and  _23
REMARK    9  A    between atoms: _28  and  _29
REMARK   10  A    between atoms: _31  and  _33
REMARK   11  A    between atoms: _33  and  _34
REMARK   12  A    between atoms: _33  and  _36
REMARK   13  A    between atoms: _36  and  _37
REMARK   14  A    between atoms: _39  and  _41
REMARK   15  A    between atoms: _41  and  _42
REMARK   16  A    between atoms: _41  and  _44
REMARK   17  A    between atoms: _44  and  _45
REMARK   18  A    between atoms: _50  and  _52
REMARK   19  A    between atoms: _52  and  _53
REMARK   20  A    between atoms: _52  and  _55
REMARK   21  A    between atoms: _55  and  _56
REMARK   22  A    between atoms: _61  and  _63
REMARK   23  A    between atoms: _63  and  _64
REMARK   24  A    between atoms: _67  and  _69
REMARK   25  A    between atoms: _69  and  _70
REMARK   26  A    between atoms: _69  and  _72
REMARK   27  A    between atoms: _72  and  _73
REMARK   28  A    between atoms: _78  and  _80
REMARK   29  A    between atoms: _80  and  _81
REMARK   30  A    between atoms: _80  and  _83
REMARK   31  A    between atoms: _83  and  _84
REMARK   32  A    between atoms: _87  and  _89
REMARK   33  A    between atoms: _89  and  _90
REMARK   34  A    between atoms: _89  and  _92
REMARK   35  A    between atoms: _92  and  _93
REMARK   36  A    between atoms: _93  and  _94
REMARK   37  A    between atoms: _99  and  _101
REMARK   38  A    between atoms: _101  and  _102
REMARK   39  A    between atoms: _101  and  _104
REMARK   40  A    between atoms: _104  and  _105
REMARK   41  A    between atoms: _111  and  _113
REMARK   42  A    between atoms: _124  and  _127
REMARK   43  A    between atoms: _127  and  _128
REMARK   44  A    between atoms: _136  and  _137
REMARK   45  A    between atoms: _145  and  _147
REMARK   46  A    between atoms: _147  and  _148
REMARK   47  A    between atoms: _147  and  _150
REMARK   48  A    between atoms: _150  and  _151
REMARK   49  A    between atoms: _151  and  _152
REMARK   50  A    between atoms: _155  and  _157
REMARK   51  A    between atoms: _157  and  _158
REMARK   52  A    between atoms: _157  and  _160
REMARK   53  A    between atoms: _160  and  _161
REMARK   54  A    between atoms: _166  and  _168
REMARK   55  A    between atoms: _168  and  _169
REMARK   56  A    between atoms: _168  and  _171
REMARK   57  A    between atoms: _171  and  _172
REMARK   58  A    between atoms: _172  and  _173
REMARK   59  A    between atoms: _176  and  _178
REMARK   60  A    between atoms: _178  and  _179
REMARK   61  A    between atoms: _178  and  _181
REMARK   62  A    between atoms: _181  and  _182
REMARK   63  A    between atoms: _185  and  _187
REMARK   64  A    between atoms: _187  and  _188
REMARK   65  A    between atoms: _187  and  _190
REMARK   66  A    between atoms: _190  and  _191
REMARK   67  A    between atoms: _192  and  ZN_416
REMARK   68  A    between atoms: _196  and  _198
REMARK   69  A    between atoms: _198  and  _199
REMARK   70  A    between atoms: _198  and  _201
REMARK   71  A    between atoms: _201  and  _202
REMARK   72  A    between atoms: _205  and  _207
REMARK   73  A    between atoms: _207  and  _208
REMARK   74  A    between atoms: _207  and  _210
REMARK   75  A    between atoms: _213  and  _215
REMARK   76  A    between atoms: _215  and  _216
REMARK   77  A    between atoms: _215  and  _218
REMARK   78  A    between atoms: _218  and  _219
REMARK   79  A    between atoms: _224  and  _226
REMARK   80  A    between atoms: _226  and  _227
REMARK   81  A    between atoms: _226  and  _229
REMARK   82  A    between atoms: _229  and  _230
REMARK   83  A    between atoms: _236  and  _238
REMARK   84  A    between atoms: _238  and  _239
REMARK   85  A    between atoms: _238  and  _241
REMARK   86  A    between atoms: _244  and  _246
REMARK   87  A    between atoms: _246  and  _247
REMARK   88  A    between atoms: _246  and  _249
REMARK   89  A    between atoms: _249  and  _250
REMARK   90  A    between atoms: _253  and  _255
REMARK   91  A    between atoms: _255  and  _256
REMARK   92  A    between atoms: _259  and  _261
REMARK   93  A    between atoms: _261  and  _262
REMARK   94  A    between atoms: _261  and  _264
REMARK   95  A    between atoms: _267  and  _269
REMARK   96  A    between atoms: _269  and  _270
REMARK   97  A    between atoms: _269  and  _272
REMARK   98  A    between atoms: _272  and  _273
REMARK   99  A    between atoms: _276  and  _278
REMARK  100  A    between atoms: _278  and  _279
REMARK  101  A    between atoms: _281  and  _283
REMARK  102  A    between atoms: _283  and  _284
REMARK  103  A    between atoms: _283  and  _286
REMARK  104  A    between atoms: _286  and  _287
REMARK  105  A    between atoms: _289  and  _291
REMARK  106  A    between atoms: _291  and  _292
REMARK  107  A    between atoms: _291  and  _294
REMARK  108  A    between atoms: _294  and  _295
REMARK  109  A    between atoms: _298  and  _300
REMARK  110  A    between atoms: _300  and  _301
REMARK  111  A    between atoms: _300  and  _303
REMARK  112  A    between atoms: _303  and  _304
REMARK  113  A    between atoms: _307  and  _309
REMARK  114  A    between atoms: _309  and  _310
REMARK  115  A    between atoms: _309  and  _312
REMARK  116  A    between atoms: _312  and  _313
REMARK  117  A    between atoms: _317  and  _318
REMARK  118  A    between atoms: _324  and  _325
REMARK  119  A    between atoms: _330  and  _332
REMARK  120  A    between atoms: _332  and  _333
REMARK  121  A    between atoms: _332  and  _335
REMARK  122  A    between atoms: _335  and  _336
REMARK  123  A    between atoms: _339  and  _341
REMARK  124  A    between atoms: _341  and  _342
REMARK  125  A    between atoms: _341  and  _344
REMARK  126  A    between atoms: _344  and  _345
REMARK  127  A    between atoms: _348  and  _350
REMARK  128  A    between atoms: _350  and  _351
REMARK  129  A    between atoms: _350  and  _353
REMARK  130  A    between atoms: _355  and  _357
REMARK  131  A    between atoms: _357  and  _358
REMARK  132  A    between atoms: _357  and  _360
REMARK  133  A    between atoms: _363  and  _365
REMARK  134  A    between atoms: _365  and  _366
REMARK  135  A    between atoms: _365  and  _368
REMARK  136  A    between atoms: _368  and  _369
REMARK  137  A    between atoms: _372  and  _374
REMARK  138  A    between atoms: _374  and  _375
REMARK  139  A    between atoms: _374  and  _377
REMARK  140  A    between atoms: _377  and  _378
REMARK  141  A    between atoms: _388  and  _390
REMARK  142  A    between atoms: _390  and  _391
REMARK  143  A    between atoms: _390  and  _393
REMARK  144  A    between atoms: _393  and  _394
REMARK  145  A    between atoms: _399  and  _401
REMARK  146  A    between atoms: _401  and  _402
REMARK  147  A    between atoms: _401  and  _404
REMARK  148  A    between atoms: _404  and  _405
REMARK  149  A    between atoms: _405  and  _406
REMARK  150  A    between atoms: _406  and  _407
REMARK                            x       y       z     vdW  Elec       q    Type
REMARK                         _______ _______ _______ _____ _____    ______ ____
ROOT
ATOM      1  O   HOH     1      15.370   1.234  10.752  0.00  0.00    +0.000 OA
ENDROOT
TORSDOF 0
REMARK  Name = ../refined-set-2016/4q83/4q83_pocket.pdb
REMARK  150 active torsions:
REMARK  status: ('A' for Active; 'I' for Inactive)
REMARK    1  A    between atoms: _1  and  _3
REMARK    2  A    between atoms: _3  and  _4
REMARK    3  A    between atoms: _3  and  _6
REMARK    4  A    between atoms: _6  and  _7
REMARK    5  A    between atoms: _17  and  _19
REMARK    6  A    between atoms: _19  and  _20
REMARK    7  A    between atoms: _19  and  _22
REMARK    8  A    between atoms: _22  and  _23
REMARK    9  A    between atoms: _28  and  _29
REMARK   10  A    between atoms: _31  and  _33
REMARK   11  A    between atoms: _33  and  _34
REMARK   12  A    between atoms: _33  and  _36
REMARK   13  A    between atoms: _36  and  _37
REMARK   14  A    between atoms: _39  and  _41
REMARK   15  A    between atoms: _41  and  _42
REMARK   16  A    between atoms: _41  and  _44
REMARK   17  A    between atoms: _44  and  _45
REMARK   18  A    between atoms: _50  and  _52
REMARK   19  A    between atoms: _52  and  _53
REMARK   20  A    between atoms: _52  and  _55
REMARK   21  A    between atoms: _55  and  _56
REMARK   22  A    between atoms: _61  and  _63
REMARK   23  A    between atoms: _63  and  _64
REMARK   24  A    between atoms: _67  and  _69
REMARK   25  A    between atoms: _69  and  _70
REMARK   26  A    between atoms: _69  and  _72
REMARK   27  A    between atoms: _72  and  _73
REMARK   28  A    between atoms: _78  and  _80
REMARK   29  A    between atoms: _80  and  _81
REMARK   30  A    between atoms: _80  and  _83
REMARK   31  A    between atoms: _83  and  _84
REMARK   32  A    between atoms: _87  and  _89
REMARK   33  A    between atoms: _89  and  _90
REMARK   34  A    between atoms: _89  and  _92
REMARK   35  A    between atoms: _92  and  _93
REMARK   36  A    between atoms: _93  and  _94
REMARK   37  A    between atoms: _99  and  _101
REMARK   38  A    between atoms: _101  and  _102
REMARK   39  A    between atoms: _101  and  _104
REMARK   40  A    between atoms: _104  and  _105
REMARK   41  A    between atoms: _111  and  _113
REMARK   42  A    between atoms: _124  and  _127
REMARK   43  A    between atoms: _127  and  _128
REMARK   44  A    between atoms: _136  and  _137
REMARK   45  A    between atoms: _145  and  _147
REMARK   46  A    between atoms: _147  and  _148
REMARK   47  A    between atoms: _147  and  _150
REMARK   48  A    between atoms: _150  and  _151
REMARK   49  A    between atoms: _151  and  _152
REMARK   50  A    between atoms: _155  and  _157
REMARK   51  A    between atoms: _157  and  _158
REMARK   52  A    between atoms: _157  and  _160
REMARK   53  A    between atoms: _160  and  _161
REMARK   54  A    between atoms: _166  and  _168
REMARK   55  A    between atoms: _168  and  _169
REMARK   56  A    between atoms: _168  and  _171
REMARK   57  A    between atoms: _171  and  _172
REMARK   58  A    between atoms: _172  and  _173
REMARK   59  A    between atoms: _176  and  _178
REMARK   60  A    between atoms: _178  and  _179
REMARK   61  A    between atoms: _178  and  _181
REMARK   62  A    between atoms: _181  and  _182
REMARK   63  A    between atoms: _185  and  _187
REMARK   64  A    between atoms: _187  and  _188
REMARK   65  A    between atoms: _187  and  _190
REMARK   66  A    between atoms: _190  and  _191
REMARK   67  A    between atoms: _192  and  ZN_416
REMARK   68  A    between atoms: _196  and  _198
REMARK   69  A    between atoms: _198  and  _199
REMARK   70  A    between atoms: _198  and  _201
REMARK   71  A    between atoms: _201  and  _202
REMARK   72  A    between atoms: _205  and  _207
REMARK   73  A    between atoms: _207  and  _208
REMARK   74  A    between atoms: _207  and  _210
REMARK   75  A    between atoms: _213  and  _215
REMARK   76  A    between atoms: _215  and  _216
REMARK   77  A    between atoms: _215  and  _218
REMARK   78  A    between atoms: _218  and  _219
REMARK   79  A    between atoms: _224  and  _226
REMARK   80  A    between atoms: _226  and  _227
REMARK   81  A    between atoms: _226  and  _229
REMARK   82  A    between atoms: _229  and  _230
REMARK   83  A    between atoms: _236  and  _238
REMARK   84  A    between atoms: _238  and  _239
REMARK   85  A    between atoms: _238  and  _241
REMARK   86  A    between atoms: _244  and  _246
REMARK   87  A    between atoms: _246  and  _247
REMARK   88  A    between atoms: _246  and  _249
REMARK   89  A    between atoms: _249  and  _250
REMARK   90  A    between atoms: _253  and  _255
REMARK   91  A    between atoms: _255  and  _256
REMARK   92  A    between atoms: _259  and  _261
REMARK   93  A    between atoms: _261  and  _262
REMARK   94  A    between atoms: _261  and  _264
REMARK   95  A    between atoms: _267  and  _269
REMARK   96  A    between atoms: _269  and  _270
REMARK   97  A    between atoms: _269  and  _272
REMARK   98  A    between atoms: _272  and  _273
REMARK   99  A    between atoms: _276  and  _278
REMARK  100  A    between atoms: _278  and  _279
REMARK  101  A    between atoms: _281  and  _283
REMARK  102  A    between atoms: _283  and  _284
REMARK  103  A    between atoms: _283  and  _286
REMARK  104  A    between atoms: _286  and  _287
REMARK  105  A    between atoms: _289  and  _291
REMARK  106  A    between atoms: _291  and  _292
REMARK  107  A    between atoms: _291  and  _294
REMARK  108  A    between atoms: _294  and  _295
REMARK  109  A    between atoms: _298  and  _300
REMARK  110  A    between atoms: _300  and  _301
REMARK  111  A    between atoms: _300  and  _303
REMARK  112  A    between atoms: _303  and  _304
REMARK  113  A    between atoms: _307  and  _309
REMARK  114  A    between atoms: _309  and  _310
REMARK  115  A    between atoms: _309  and  _312
REMARK  116  A    between atoms: _312  and  _313
REMARK  117  A    between atoms: _317  and  _318
REMARK  118  A    between atoms: _324  and  _325
REMARK  119  A    between atoms: _330  and  _332
REMARK  120  A    between atoms: _332  and  _333
REMARK  121  A    between atoms: _332  and  _335
REMARK  122  A    between atoms: _335  and  _336
REMARK  123  A    between atoms: _339  and  _341
REMARK  124  A    between atoms: _341  and  _342
REMARK  125  A    between atoms: _341  and  _344
REMARK  126  A    between atoms: _344  and  _345
REMARK  127  A    between atoms: _348  and  _350
REMARK  128  A    between atoms: _350  and  _351
REMARK  129  A    between atoms: _350  and  _353
REMARK  130  A    between atoms: _355  and  _357
REMARK  131  A    between atoms: _357  and  _358
REMARK  132  A    between atoms: _357  and  _360
REMARK  133  A    between atoms: _363  and  _365
REMARK  134  A    between atoms: _365  and  _366
REMARK  135  A    between atoms: _365  and  _368
REMARK  136  A    between atoms: _368  and  _369
REMARK  137  A    between atoms: _372  and  _374
REMARK  138  A    between atoms: _374  and  _375
REMARK  139  A    between atoms: _374  and  _377
REMARK  140  A    between atoms: _377  and  _378
REMARK  141  A    between atoms: _388  and  _390
REMARK  142  A    between atoms: _390  and  _391
REMARK  143  A    between atoms: _390  and  _393
REMARK  144  A    between atoms: _393  and  _394
REMARK  145  A    between atoms: _399  and  _401
REMARK  146  A    between atoms: _401  and  _402
REMARK  147  A    between atoms: _401  and  _404
REMARK  148  A    between atoms: _404  and  _405
REMARK  149  A    between atoms: _405  and  _406
REMARK  150  A    between atoms: _406  and  _407
REMARK                            x       y       z     vdW  Elec       q    Type
REMARK                         _______ _______ _______ _____ _____    ______ ____
ROOT
ATOM      1  O   HOH     1      16.997   3.277  10.422  0.00  0.00    +0.000 OA
ENDROOT
TORSDOF 0
REMARK  Name = ../refined-set-2016/4q83/4q83_pocket.pdb
REMARK  150 active torsions:
REMARK  status: ('A' for Active; 'I' for Inactive)
REMARK    1  A    between atoms: _1  and  _3
REMARK    2  A    between atoms: _3  and  _4
REMARK    3  A    between atoms: _3  and  _6
REMARK    4  A    between atoms: _6  and  _7
REMARK    5  A    between atoms: _17  and  _19
REMARK    6  A    between atoms: _19  and  _20
REMARK    7  A    between atoms: _19  and  _22
REMARK    8  A    between atoms: _22  and  _23
REMARK    9  A    between atoms: _28  and  _29
REMARK   10  A    between atoms: _31  and  _33
REMARK   11  A    between atoms: _33  and  _34
REMARK   12  A    between atoms: _33  and  _36
REMARK   13  A    between atoms: _36  and  _37
REMARK   14  A    between atoms: _39  and  _41
REMARK   15  A    between atoms: _41  and  _42
REMARK   16  A    between atoms: _41  and  _44
REMARK   17  A    between atoms: _44  and  _45
REMARK   18  A    between atoms: _50  and  _52
REMARK   19  A    between atoms: _52  and  _53
REMARK   20  A    between atoms: _52  and  _55
REMARK   21  A    between atoms: _55  and  _56
REMARK   22  A    between atoms: _61  and  _63
REMARK   23  A    between atoms: _63  and  _64
REMARK   24  A    between atoms: _67  and  _69
REMARK   25  A    between atoms: _69  and  _70
REMARK   26  A    between atoms: _69  and  _72
REMARK   27  A    between atoms: _72  and  _73
REMARK   28  A    between atoms: _78  and  _80
REMARK   29  A    between atoms: _80  and  _81
REMARK   30  A    between atoms: _80  and  _83
REMARK   31  A    between atoms: _83  and  _84
REMARK   32  A    between atoms: _87  and  _89
REMARK   33  A    between atoms: _89  and  _90
REMARK   34  A    between atoms: _89  and  _92
REMARK   35  A    between atoms: _92  and  _93
REMARK   36  A    between atoms: _93  and  _94
REMARK   37  A    between atoms: _99  and  _101
REMARK   38  A    between atoms: _101  and  _102
REMARK   39  A    between atoms: _101  and  _104
REMARK   40  A    between atoms: _104  and  _105
REMARK   41  A    between atoms: _111  and  _113
REMARK   42  A    between atoms: _124  and  _127
REMARK   43  A    between atoms: _127  and  _128
REMARK   44  A    between atoms: _136  and  _137
REMARK   45  A    between atoms: _145  and  _147
REMARK   46  A    between atoms: _147  and  _148
REMARK   47  A    between atoms: _147  and  _150
REMARK   48  A    between atoms: _150  and  _151
REMARK   49  A    between atoms: _151  and  _152
REMARK   50  A    between atoms: _155  and  _157
REMARK   51  A    between atoms: _157  and  _158
REMARK   52  A    between atoms: _157  and  _160
REMARK   53  A    between atoms: _160  and  _161
REMARK   54  A    between atoms: _166  and  _168
REMARK   55  A    between atoms: _168  and  _169
REMARK   56  A    between atoms: _168  and  _171
REMARK   57  A    between atoms: _171  and  _172
REMARK   58  A    between atoms: _172  and  _173
REMARK   59  A    between atoms: _176  and  _178
REMARK   60  A    between atoms: _178  and  _179
REMARK   61  A    between atoms: _178  and  _181
REMARK   62  A    between atoms: _181  and  _182
REMARK   63  A    between atoms: _185  and  _187
REMARK   64  A    between atoms: _187  and  _188
REMARK   65  A    between atoms: _187  and  _190
REMARK   66  A    between atoms: _190  and  _191
REMARK   67  A    between atoms: _192  and  ZN_416
REMARK   68  A    between atoms: _196  and  _198
REMARK   69  A    between atoms: _198  and  _199
REMARK   70  A    between atoms: _198  and  _201
REMARK   71  A    between atoms: _201  and  _202
REMARK   72  A    between atoms: _205  and  _207
REMARK   73  A    between atoms: _207  and  _208
REMARK   74  A    between atoms: _207  and  _210
REMARK   75  A    between atoms: _213  and  _215
REMARK   76  A    between atoms: _215  and  _216
REMARK   77  A    between atoms: _215  and  _218
REMARK   78  A    between atoms: _218  and  _219
REMARK   79  A    between atoms: _224  and  _226
REMARK   80  A    between atoms: _226  and  _227
REMARK   81  A    between atoms: _226  and  _229
REMARK   82  A    between atoms: _229  and  _230
REMARK   83  A    between atoms: _236  and  _238
REMARK   84  A    between atoms: _238  and  _239
REMARK   85  A    between atoms: _238  and  _241
REMARK   86  A    between atoms: _244  and  _246
REMARK   87  A    between atoms: _246  and  _247
REMARK   88  A    between atoms: _246  and  _249
REMARK   89  A    between atoms: _249  and  _250
REMARK   90  A    between atoms: _253  and  _255
REMARK   91  A    between atoms: _255  and  _256
REMARK   92  A    between atoms: _259  and  _261
REMARK   93  A    between atoms: _261  and  _262
REMARK   94  A    between atoms: _261  and  _264
REMARK   95  A    between atoms: _267  and  _269
REMARK   96  A    between atoms: _269  and  _270
REMARK   97  A    between atoms: _269  and  _272
REMARK   98  A    between atoms: _272  and  _273
REMARK   99  A    between atoms: _276  and  _278
REMARK  100  A    between atoms: _278  and  _279
REMARK  101  A    between atoms: _281  and  _283
REMARK  102  A    between atoms: _283  and  _284
REMARK  103  A    between atoms: _283  and  _286
REMARK  104  A    between atoms: _286  and  _287
REMARK  105  A    between atoms: _289  and  _291
REMARK  106  A    between atoms: _291  and  _292
REMARK  107  A    between atoms: _291  and  _294
REMARK  108  A    between atoms: _294  and  _295
REMARK  109  A    between atoms: _298  and  _300
REMARK  110  A    between atoms: _300  and  _301
REMARK  111  A    between atoms: _300  and  _303
REMARK  112  A    between atoms: _303  and  _304
REMARK  113  A    between atoms: _307  and  _309
REMARK  114  A    between atoms: _309  and  _310
REMARK  115  A    between atoms: _309  and  _312
REMARK  116  A    between atoms: _312  and  _313
REMARK  117  A    between atoms: _317  and  _318
REMARK  118  A    between atoms: _324  and  _325
REMARK  119  A    between atoms: _330  and  _332
REMARK  120  A    between atoms: _332  and  _333
REMARK  121  A    between atoms: _332  and  _335
REMARK  122  A    between atoms: _335  and  _336
REMARK  123  A    between atoms: _339  and  _341
REMARK  124  A    between atoms: _341  and  _342
REMARK  125  A    between atoms: _341  and  _344
REMARK  126  A    between atoms: _344  and  _345
REMARK  127  A    between atoms: _348  and  _350
REMARK  128  A    between atoms: _350  and  _351
REMARK  129  A    between atoms: _350  and  _353
REMARK  130  A    between atoms: _355  and  _357
REMARK  131  A    between atoms: _357  and  _358
REMARK  132  A    between atoms: _357  and  _360
REMARK  133  A    between atoms: _363  and  _365
REMARK  134  A    between atoms: _365  and  _366
REMARK  135  A    between atoms: _365  and  _368
REMARK  136  A    between atoms: _368  and  _369
REMARK  137  A    between atoms: _372  and  _374
REMARK  138  A    between atoms: _374  and  _375
REMARK  139  A    between atoms: _374  and  _377
REMARK  140  A    between atoms: _377  and  _378
REMARK  141  A    between atoms: _388  and  _390
REMARK  142  A    between atoms: _390  and  _391
REMARK  143  A    between atoms: _390  and  _393
REMARK  144  A    between atoms: _393  and  _394
REMARK  145  A    between atoms: _399  and  _401
REMARK  146  A    between atoms: _401  and  _402
REMARK  147  A    between atoms: _401  and  _404
REMARK  148  A    between atoms: _404  and  _405
REMARK  149  A    between atoms: _405  and  _406
REMARK  150  A    between atoms: _406  and  _407
REMARK                            x       y       z     vdW  Elec       q    Type
REMARK                         _______ _______ _______ _____ _____    ______ ____
ROOT
ATOM      1  O   HOH     1      19.397   7.656  13.680  0.00  0.00    +0.000 OA
ENDROOT
TORSDOF 0
