REMARK  Name = ../refined-set-2016/3b7j/3b7j_pocket.pdb
REMARK  98 active torsions:
REMARK  status: ('A' for Active; 'I' for Inactive)
REMARK    1  A    between atoms: _1  and  _3
REMARK    2  A    between atoms: _3  and  _4
REMARK    3  A    between atoms: _3  and  _6
REMARK    4  A    between atoms: _6  and  _7
REMARK    5  A    between atoms: _12  and  _14
REMARK    6  A    between atoms: _14  and  _15
REMARK    7  A    between atoms: _14  and  _17
REMARK    8  A    between atoms: _17  and  _18
REMARK    9  A    between atoms: _24  and  _26
REMARK   10  A    between atoms: _26  and  _27
REMARK   11  A    between atoms: _26  and  _29
REMARK   12  A    between atoms: _29  and  _30
REMARK   13  A    between atoms: _30  and  _31
REMARK   14  A    between atoms: _31  and  _32
REMARK   15  A    between atoms: _32  and  _33
REMARK   16  A    between atoms: _37  and  _39
REMARK   17  A    between atoms: _39  and  _40
REMARK   18  A    between atoms: _39  and  _42
REMARK   19  A    between atoms: _42  and  _43
REMARK   20  A    between atoms: _46  and  _48
REMARK   21  A    between atoms: _48  and  _49
REMARK   22  A    between atoms: _48  and  _51
REMARK   23  A    between atoms: _51  and  _52
REMARK   24  A    between atoms: _59  and  _60
REMARK   25  A    between atoms: _65  and  _67
REMARK   26  A    between atoms: _67  and  _68
REMARK   27  A    between atoms: _70  and  _72
REMARK   28  A    between atoms: _72  and  _73
REMARK   29  A    between atoms: _72  and  _75
REMARK   30  A    between atoms: _78  and  _80
REMARK   31  A    between atoms: _80  and  _81
REMARK   32  A    between atoms: _80  and  _83
REMARK   33  A    between atoms: _83  and  _84
REMARK   34  A    between atoms: _87  and  _89
REMARK   35  A    between atoms: _89  and  _90
REMARK   36  A    between atoms: _89  and  _92
REMARK   37  A    between atoms: _92  and  _93
REMARK   38  A    between atoms: _93  and  _94
REMARK   39  A    between atoms: _94  and  _95
REMARK   40  A    between atoms: _95  and  _96
REMARK   41  A    between atoms: _100  and  _102
REMARK   42  A    between atoms: _102  and  _103
REMARK   43  A    between atoms: _102  and  _105
REMARK   44  A    between atoms: _105  and  _106
REMARK   45  A    between atoms: _112  and  _114
REMARK   46  A    between atoms: _114  and  _115
REMARK   47  A    between atoms: _114  and  _117
REMARK   48  A    between atoms: _117  and  _118
REMARK   49  A    between atoms: _118  and  _119
REMARK   50  A    between atoms: _119  and  _120
REMARK   51  A    between atoms: _129  and  _131
REMARK   52  A    between atoms: _131  and  _132
REMARK   53  A    between atoms: _131  and  _134
REMARK   54  A    between atoms: _134  and  _135
REMARK   55  A    between atoms: _139  and  _140
REMARK   56  A    between atoms: _145  and  _147
REMARK   57  A    between atoms: _147  and  _148
REMARK   58  A    between atoms: _147  and  _150
REMARK   59  A    between atoms: _153  and  _155
REMARK   60  A    between atoms: _155  and  _156
REMARK   61  A    between atoms: _155  and  _158
REMARK   62  A    between atoms: _158  and  _159
REMARK   63  A    between atoms: _162  and  _164
REMARK   64  A    between atoms: _164  and  _165
REMARK   65  A    between atoms: _164  and  _167
REMARK   66  A    between atoms: _170  and  _172
REMARK   67  A    between atoms: _172  and  _173
REMARK   68  A    between atoms: _172  and  _175
REMARK   69  A    between atoms: _178  and  _180
REMARK   70  A    between atoms: _180  and  _181
REMARK   71  A    between atoms: _184  and  _186
REMARK   72  A    between atoms: _186  and  _187
REMARK   73  A    between atoms: _186  and  _189
REMARK   74  A    between atoms: _189  and  _190
REMARK   75  A    between atoms: _193  and  _195
REMARK   76  A    between atoms: _195  and  _196
REMARK   77  A    between atoms: _195  and  _198
REMARK   78  A    between atoms: _201  and  _203
REMARK   79  A    between atoms: _203  and  _204
REMARK   80  A    between atoms: _203  and  _206
REMARK   81  A    between atoms: _206  and  _207
REMARK   82  A    between atoms: _212  and  _213
REMARK   83  A    between atoms: _215  and  _217
REMARK   84  A    between atoms: _217  and  _218
REMARK   85  A    between atoms: _217  and  _220
REMARK   86  A    between atoms: _220  and  _221
REMARK   87  A    between atoms: _227  and  _229
REMARK   88  A    between atoms: _229  and  _230
REMARK   89  A    between atoms: _229  and  _232
REMARK   90  A    between atoms: _232  and  _233
REMARK   91  A    between atoms: _233  and  _234
REMARK   92  A    between atoms: _236  and  _238
REMARK   93  A    between atoms: _238  and  _239
REMARK   94  A    between atoms: _238  and  _241
REMARK   95  A    between atoms: _241  and  _242
REMARK   96  A    between atoms: _242  and  _243
REMARK   97  A    between atoms: _245  and  _247
REMARK   98  A    between atoms: _247  and  _248
REMARK                            x       y       z     vdW  Elec       q    Type
REMARK                         _______ _______ _______ _____ _____    ______ ____
ROOT
ATOM      1  C   HIS A   1       8.360  11.611 -14.314  0.00  0.00    +0.239 C 
ATOM      2  N   PHE A   2       8.008  12.850 -14.659  0.00  0.00    -0.298 N 
ATOM      3  H   PHE A   2       8.523  13.295 -15.445  0.00  0.00    +0.150 HD
ATOM      4  O   HIS A   1       9.251  11.003 -14.903  0.00  0.00    -0.274 OA
ENDROOT
BRANCH   1   5
ATOM      5  CA  HIS A   1       7.612  10.945 -13.152  0.00  0.00    +0.151 C 
BRANCH   5   6
ATOM      6  N   HIS A   1       6.270  10.516 -13.514  0.00  0.00    -0.238 NA
ATOM      7  H   HIS A   1       6.074  10.181 -14.479  0.00  0.00    +0.142 HD
ENDBRANCH   5   6
BRANCH   5   8
ATOM      8  CB  HIS A   1       8.389   9.721 -12.644  0.00  0.00    +0.074 C 
BRANCH   8   9
ATOM      9  CG  HIS A   1       9.666  10.054 -11.930  0.00  0.00    +0.082 A 
ATOM     10  CD2 HIS A   1       9.979  10.034 -10.612  0.00  0.00    +0.115 A 
ATOM     11  NE2 HIS A   1      11.289  10.433 -10.499  0.00  0.00    -0.221 NA
ATOM     12  CE1 HIS A   1      11.765  10.686 -11.705  0.00  0.00    +0.199 A 
ATOM     13  ND1 HIS A   1      10.806  10.466 -12.588  0.00  0.00    -0.227 NA
ENDBRANCH   8   9
ENDBRANCH   5   8
ENDBRANCH   1   5
BRANCH   2  14
ATOM     14  CA  PHE A   2       6.951  13.632 -14.015  0.00  0.00    +0.141 C 
BRANCH  14  15
ATOM     15  C   PHE A   2       6.035  14.169 -15.118  0.00  0.00    +0.227 C 
ATOM     16  O   PHE A   2       6.409  14.186 -16.295  0.00  0.00    -0.286 OA
ENDBRANCH  14  15
BRANCH  14  17
ATOM     17  CB  PHE A   2       7.556  14.827 -13.262  0.00  0.00    +0.054 C 
BRANCH  17  18
ATOM     18  CG  PHE A   2       8.440  14.442 -12.113  0.00  0.00    -0.020 A 
ATOM     19  CD2 PHE A   2       7.892  14.076 -10.891  0.00  0.00    -0.004 A 
ATOM     20  CE2 PHE A   2       8.707  13.689  -9.829  0.00  0.00    -0.000 A 
ATOM     21  CZ  PHE A   2      10.084  13.667  -9.989  0.00  0.00    -0.000 A 
ATOM     22  CE1 PHE A   2      10.642  14.033 -11.208  0.00  0.00    -0.000 A 
ATOM     23  CD1 PHE A   2       9.818  14.419 -12.262  0.00  0.00    -0.004 A 
ENDBRANCH  17  18
ENDBRANCH  14  17
ENDBRANCH   2  14
TORSDOF 8
REMARK  Name = ../refined-set-2016/3b7j/3b7j_pocket.pdb
REMARK  98 active torsions:
REMARK  status: ('A' for Active; 'I' for Inactive)
REMARK    1  A    between atoms: _1  and  _3
REMARK    2  A    between atoms: _3  and  _4
REMARK    3  A    between atoms: _3  and  _6
REMARK    4  A    between atoms: _6  and  _7
REMARK    5  A    between atoms: _12  and  _14
REMARK    6  A    between atoms: _14  and  _15
REMARK    7  A    between atoms: _14  and  _17
REMARK    8  A    between atoms: _17  and  _18
REMARK    9  A    between atoms: _24  and  _26
REMARK   10  A    between atoms: _26  and  _27
REMARK   11  A    between atoms: _26  and  _29
REMARK   12  A    between atoms: _29  and  _30
REMARK   13  A    between atoms: _30  and  _31
REMARK   14  A    between atoms: _31  and  _32
REMARK   15  A    between atoms: _32  and  _33
REMARK   16  A    between atoms: _37  and  _39
REMARK   17  A    between atoms: _39  and  _40
REMARK   18  A    between atoms: _39  and  _42
REMARK   19  A    between atoms: _42  and  _43
REMARK   20  A    between atoms: _46  and  _48
REMARK   21  A    between atoms: _48  and  _49
REMARK   22  A    between atoms: _48  and  _51
REMARK   23  A    between atoms: _51  and  _52
REMARK   24  A    between atoms: _59  and  _60
REMARK   25  A    between atoms: _65  and  _67
REMARK   26  A    between atoms: _67  and  _68
REMARK   27  A    between atoms: _70  and  _72
REMARK   28  A    between atoms: _72  and  _73
REMARK   29  A    between atoms: _72  and  _75
REMARK   30  A    between atoms: _78  and  _80
REMARK   31  A    between atoms: _80  and  _81
REMARK   32  A    between atoms: _80  and  _83
REMARK   33  A    between atoms: _83  and  _84
REMARK   34  A    between atoms: _87  and  _89
REMARK   35  A    between atoms: _89  and  _90
REMARK   36  A    between atoms: _89  and  _92
REMARK   37  A    between atoms: _92  and  _93
REMARK   38  A    between atoms: _93  and  _94
REMARK   39  A    between atoms: _94  and  _95
REMARK   40  A    between atoms: _95  and  _96
REMARK   41  A    between atoms: _100  and  _102
REMARK   42  A    between atoms: _102  and  _103
REMARK   43  A    between atoms: _102  and  _105
REMARK   44  A    between atoms: _105  and  _106
REMARK   45  A    between atoms: _112  and  _114
REMARK   46  A    between atoms: _114  and  _115
REMARK   47  A    between atoms: _114  and  _117
REMARK   48  A    between atoms: _117  and  _118
REMARK   49  A    between atoms: _118  and  _119
REMARK   50  A    between atoms: _119  and  _120
REMARK   51  A    between atoms: _129  and  _131
REMARK   52  A    between atoms: _131  and  _132
REMARK   53  A    between atoms: _131  and  _134
REMARK   54  A    between atoms: _134  and  _135
REMARK   55  A    between atoms: _139  and  _140
REMARK   56  A    between atoms: _145  and  _147
REMARK   57  A    between atoms: _147  and  _148
REMARK   58  A    between atoms: _147  and  _150
REMARK   59  A    between atoms: _153  and  _155
REMARK   60  A    between atoms: _155  and  _156
REMARK   61  A    between atoms: _155  and  _158
REMARK   62  A    between atoms: _158  and  _159
REMARK   63  A    between atoms: _162  and  _164
REMARK   64  A    between atoms: _164  and  _165
REMARK   65  A    between atoms: _164  and  _167
REMARK   66  A    between atoms: _170  and  _172
REMARK   67  A    between atoms: _172  and  _173
REMARK   68  A    between atoms: _172  and  _175
REMARK   69  A    between atoms: _178  and  _180
REMARK   70  A    between atoms: _180  and  _181
REMARK   71  A    between atoms: _184  and  _186
REMARK   72  A    between atoms: _186  and  _187
REMARK   73  A    between atoms: _186  and  _189
REMARK   74  A    between atoms: _189  and  _190
REMARK   75  A    between atoms: _193  and  _195
REMARK   76  A    between atoms: _195  and  _196
REMARK   77  A    between atoms: _195  and  _198
REMARK   78  A    between atoms: _201  and  _203
REMARK   79  A    between atoms: _203  and  _204
REMARK   80  A    between atoms: _203  and  _206
REMARK   81  A    between atoms: _206  and  _207
REMARK   82  A    between atoms: _212  and  _213
REMARK   83  A    between atoms: _215  and  _217
REMARK   84  A    between atoms: _217  and  _218
REMARK   85  A    between atoms: _217  and  _220
REMARK   86  A    between atoms: _220  and  _221
REMARK   87  A    between atoms: _227  and  _229
REMARK   88  A    between atoms: _229  and  _230
REMARK   89  A    between atoms: _229  and  _232
REMARK   90  A    between atoms: _232  and  _233
REMARK   91  A    between atoms: _233  and  _234
REMARK   92  A    between atoms: _236  and  _238
REMARK   93  A    between atoms: _238  and  _239
REMARK   94  A    between atoms: _238  and  _241
REMARK   95  A    between atoms: _241  and  _242
REMARK   96  A    between atoms: _242  and  _243
REMARK   97  A    between atoms: _245  and  _247
REMARK   98  A    between atoms: _247  and  _248
REMARK                            x       y       z     vdW  Elec       q    Type
REMARK                         _______ _______ _______ _____ _____    ______ ____
ROOT
ATOM      1  CG  LYS A   1      10.318  18.382 -16.676  0.00  0.00    -0.000 C 
ENDROOT
BRANCH   1   2
ATOM      2  CB  LYS A   1       9.241  17.341 -16.385  0.00  0.00    +0.025 C 
BRANCH   2   3
ATOM      3  CA  LYS A   1       8.859  16.464 -17.582  0.00  0.00    +0.133 C 
BRANCH   3   4
ATOM      4  N   LYS A   1       7.413  16.447 -17.776  0.00  0.00    -0.239 NA
ATOM      5  H   LYS A   1       6.840  15.720 -17.302  0.00  0.00    +0.142 HD
ENDBRANCH   3   4
BRANCH   3   6
ATOM      6  C   LYS A   1       9.340  15.023 -17.371  0.00  0.00    +0.224 C 
ATOM      7  O   LYS A   1       9.753  14.644 -16.276  0.00  0.00    -0.287 OA
ENDBRANCH   3   6
ENDBRANCH   2   3
ENDBRANCH   1   2
BRANCH   1   8
ATOM      8  CD  LYS A   1      11.702  17.759 -16.800  0.00  0.00    -0.024 C 
BRANCH   8   9
ATOM      9  CE  LYS A   1      12.748  18.830 -17.083  0.00  0.00    -0.086 C 
BRANCH   9  10
ATOM     10  NZ  LYS A   1      14.143  18.292 -16.986  0.00  0.00    +0.380 N 
ATOM     11  HZ1 LYS A   1      14.305  17.924 -16.027  0.00  0.00    -0.089 HD
ATOM     12  HZ2 LYS A   1      14.822  19.054 -17.186  0.00  0.00    -0.089 HD
ATOM     13  HZ3 LYS A   1      14.267  17.526 -17.678  0.00  0.00    -0.089 HD
ENDBRANCH   9  10
ENDBRANCH   8   9
ENDBRANCH   1   8
TORSDOF 7
REMARK  Name = ../refined-set-2016/3b7j/3b7j_pocket.pdb
REMARK  98 active torsions:
REMARK  status: ('A' for Active; 'I' for Inactive)
REMARK    1  A    between atoms: _1  and  _3
REMARK    2  A    between atoms: _3  and  _4
REMARK    3  A    between atoms: _3  and  _6
REMARK    4  A    between atoms: _6  and  _7
REMARK    5  A    between atoms: _12  and  _14
REMARK    6  A    between atoms: _14  and  _15
REMARK    7  A    between atoms: _14  and  _17
REMARK    8  A    between atoms: _17  and  _18
REMARK    9  A    between atoms: _24  and  _26
REMARK   10  A    between atoms: _26  and  _27
REMARK   11  A    between atoms: _26  and  _29
REMARK   12  A    between atoms: _29  and  _30
REMARK   13  A    between atoms: _30  and  _31
REMARK   14  A    between atoms: _31  and  _32
REMARK   15  A    between atoms: _32  and  _33
REMARK   16  A    between atoms: _37  and  _39
REMARK   17  A    between atoms: _39  and  _40
REMARK   18  A    between atoms: _39  and  _42
REMARK   19  A    between atoms: _42  and  _43
REMARK   20  A    between atoms: _46  and  _48
REMARK   21  A    between atoms: _48  and  _49
REMARK   22  A    between atoms: _48  and  _51
REMARK   23  A    between atoms: _51  and  _52
REMARK   24  A    between atoms: _59  and  _60
REMARK   25  A    between atoms: _65  and  _67
REMARK   26  A    between atoms: _67  and  _68
REMARK   27  A    between atoms: _70  and  _72
REMARK   28  A    between atoms: _72  and  _73
REMARK   29  A    between atoms: _72  and  _75
REMARK   30  A    between atoms: _78  and  _80
REMARK   31  A    between atoms: _80  and  _81
REMARK   32  A    between atoms: _80  and  _83
REMARK   33  A    between atoms: _83  and  _84
REMARK   34  A    between atoms: _87  and  _89
REMARK   35  A    between atoms: _89  and  _90
REMARK   36  A    between atoms: _89  and  _92
REMARK   37  A    between atoms: _92  and  _93
REMARK   38  A    between atoms: _93  and  _94
REMARK   39  A    between atoms: _94  and  _95
REMARK   40  A    between atoms: _95  and  _96
REMARK   41  A    between atoms: _100  and  _102
REMARK   42  A    between atoms: _102  and  _103
REMARK   43  A    between atoms: _102  and  _105
REMARK   44  A    between atoms: _105  and  _106
REMARK   45  A    between atoms: _112  and  _114
REMARK   46  A    between atoms: _114  and  _115
REMARK   47  A    between atoms: _114  and  _117
REMARK   48  A    between atoms: _117  and  _118
REMARK   49  A    between atoms: _118  and  _119
REMARK   50  A    between atoms: _119  and  _120
REMARK   51  A    between atoms: _129  and  _131
REMARK   52  A    between atoms: _131  and  _132
REMARK   53  A    between atoms: _131  and  _134
REMARK   54  A    between atoms: _134  and  _135
REMARK   55  A    between atoms: _139  and  _140
REMARK   56  A    between atoms: _145  and  _147
REMARK   57  A    between atoms: _147  and  _148
REMARK   58  A    between atoms: _147  and  _150
REMARK   59  A    between atoms: _153  and  _155
REMARK   60  A    between atoms: _155  and  _156
REMARK   61  A    between atoms: _155  and  _158
REMARK   62  A    between atoms: _158  and  _159
REMARK   63  A    between atoms: _162  and  _164
REMARK   64  A    between atoms: _164  and  _165
REMARK   65  A    between atoms: _164  and  _167
REMARK   66  A    between atoms: _170  and  _172
REMARK   67  A    between atoms: _172  and  _173
REMARK   68  A    between atoms: _172  and  _175
REMARK   69  A    between atoms: _178  and  _180
REMARK   70  A    between atoms: _180  and  _181
REMARK   71  A    between atoms: _184  and  _186
REMARK   72  A    between atoms: _186  and  _187
REMARK   73  A    between atoms: _186  and  _189
REMARK   74  A    between atoms: _189  and  _190
REMARK   75  A    between atoms: _193  and  _195
REMARK   76  A    between atoms: _195  and  _196
REMARK   77  A    between atoms: _195  and  _198
REMARK   78  A    between atoms: _201  and  _203
REMARK   79  A    between atoms: _203  and  _204
REMARK   80  A    between atoms: _203  and  _206
REMARK   81  A    between atoms: _206  and  _207
REMARK   82  A    between atoms: _212  and  _213
REMARK   83  A    between atoms: _215  and  _217
REMARK   84  A    between atoms: _217  and  _218
REMARK   85  A    between atoms: _217  and  _220
REMARK   86  A    between atoms: _220  and  _221
REMARK   87  A    between atoms: _227  and  _229
REMARK   88  A    between atoms: _229  and  _230
REMARK   89  A    between atoms: _229  and  _232
REMARK   90  A    between atoms: _232  and  _233
REMARK   91  A    between atoms: _233  and  _234
REMARK   92  A    between atoms: _236  and  _238
REMARK   93  A    between atoms: _238  and  _239
REMARK   94  A    between atoms: _238  and  _241
REMARK   95  A    between atoms: _241  and  _242
REMARK   96  A    between atoms: _242  and  _243
REMARK   97  A    between atoms: _245  and  _247
REMARK   98  A    between atoms: _247  and  _248
REMARK                            x       y       z     vdW  Elec       q    Type
REMARK                         _______ _______ _______ _____ _____    ______ ____
ROOT
ATOM      1  C   PHE A   2      14.096   8.010 -14.359  0.00  0.00    +0.244 C 
ATOM      2  N   PRO A   3      13.312   7.427 -13.441  0.00  0.00    -0.272 N 
ATOM      3  CA  PRO A   3      13.677   7.331 -12.022  0.00  0.00    +0.152 C 
ATOM      4  CB  PRO A   3      12.565   6.456 -11.440  0.00  0.00    +0.031 C 
ATOM      5  CG  PRO A   3      11.389   6.784 -12.313  0.00  0.00    +0.024 C 
ATOM      6  CD  PRO A   3      12.009   6.783 -13.687  0.00  0.00    +0.094 C 
ATOM      7  O   PHE A   2      15.179   8.508 -14.062  0.00  0.00    -0.273 OA
ENDROOT
BRANCH   3   8
ATOM      8  C   PRO A   3      15.073   6.759 -11.733  0.00  0.00    +0.241 C 
ATOM      9  N   GLY A   4      15.875   7.527 -10.993  0.00  0.00    -0.295 N 
ATOM     10  H   GLY A   4      15.536   8.456 -10.671  0.00  0.00    +0.150 HD
ATOM     11  O   PRO A   3      15.407   5.651 -12.169  0.00  0.00    -0.273 OA
BRANCH   9  12
ATOM     12  CA  GLY A   4      17.212   7.093 -10.627  0.00  0.00    +0.176 C 
BRANCH  12  13
ATOM     13  C   GLY A   4      17.233   5.715  -9.977  0.00  0.00    +0.243 C 
ATOM     14  N   VAL A   5      16.220   5.411  -9.168  0.00  0.00    -0.298 N 
ATOM     15  H   VAL A   5      15.465   6.107  -9.003  0.00  0.00    +0.150 HD
ATOM     16  O   GLY A   4      18.154   4.929 -10.204  0.00  0.00    -0.273 OA
BRANCH  14  17
ATOM     17  CA  VAL A   5      16.162   4.115  -8.514  0.00  0.00    +0.137 C 
BRANCH  17  18
ATOM     18  CB  VAL A   5      15.045   4.078  -7.426  0.00  0.00    +0.026 C 
ATOM     19  CG2 VAL A   5      15.371   5.080  -6.325  0.00  0.00    +0.002 C 
ATOM     20  CG1 VAL A   5      13.679   4.374  -8.042  0.00  0.00    +0.002 C 
ENDBRANCH  17  18
BRANCH  17  21
ATOM     21  C   VAL A   5      15.954   2.991  -9.529  0.00  0.00    +0.227 C 
ATOM     22  O   VAL A   5      16.410   1.870  -9.324  0.00  0.00    -0.286 OA
ENDBRANCH  17  21
ENDBRANCH  14  17
ENDBRANCH  12  13
ENDBRANCH   9  12
ENDBRANCH   3   8
BRANCH   1  23
ATOM     23  CA  PHE A   2      13.589   8.048 -15.801  0.00  0.00    +0.153 C 
BRANCH  23  26
ATOM     24  C   ILE A   1      12.649  10.263 -15.667  0.00  0.00    +0.238 C 
ATOM     25  O   ILE A   1      11.817   9.875 -14.852  0.00  0.00    -0.274 OA
ATOM     26  N   PHE A   2      13.552   9.449 -16.200  0.00  0.00    -0.297 N 
ATOM     27  H   PHE A   2      14.231   9.810 -16.900  0.00  0.00    +0.150 HD
BRANCH  24  28
ATOM     28  CA  ILE A   1      12.664  11.724 -16.110  0.00  0.00    +0.145 C 
BRANCH  28  29
ATOM     29  N   ILE A   1      11.337  12.029 -16.652  0.00  0.00    -0.238 NA
ATOM     30  H   ILE A   1      10.497  11.823 -16.075  0.00  0.00    +0.142 HD
ENDBRANCH  28  29
BRANCH  28  31
ATOM     31  CB  ILE A   1      13.010  12.579 -14.854  0.00  0.00    +0.025 C 
ATOM     32  CG2 ILE A   1      14.439  12.281 -14.415  0.00  0.00    +0.002 C 
BRANCH  31  33
ATOM     33  CG1 ILE A   1      12.829  14.076 -15.130  0.00  0.00    +0.002 C 
ATOM     34  CD1 ILE A   1      13.772  14.641 -16.152  0.00  0.00    +0.000 C 
ENDBRANCH  31  33
ENDBRANCH  28  31
ENDBRANCH  24  28
ENDBRANCH  23  26
BRANCH  23  35
ATOM     35  CB  PHE A   2      14.519   7.246 -16.718  0.00  0.00    +0.055 C 
BRANCH  35  36
ATOM     36  CG  PHE A   2      14.323   5.760 -16.625  0.00  0.00    -0.020 A 
ATOM     37  CD2 PHE A   2      15.321   4.941 -16.108  0.00  0.00    -0.004 A 
ATOM     38  CE2 PHE A   2      15.132   3.562 -16.015  0.00  0.00    -0.000 A 
ATOM     39  CZ  PHE A   2      13.936   2.996 -16.442  0.00  0.00    -0.000 A 
ATOM     40  CE1 PHE A   2      12.937   3.805 -16.959  0.00  0.00    -0.000 A 
ATOM     41  CD1 PHE A   2      13.133   5.176 -17.047  0.00  0.00    -0.004 A 
ENDBRANCH  35  36
ENDBRANCH  23  35
ENDBRANCH   1  23
TORSDOF 14
REMARK  Name = ../refined-set-2016/3b7j/3b7j_pocket.pdb
REMARK  98 active torsions:
REMARK  status: ('A' for Active; 'I' for Inactive)
REMARK    1  A    between atoms: _1  and  _3
REMARK    2  A    between atoms: _3  and  _4
REMARK    3  A    between atoms: _3  and  _6
REMARK    4  A    between atoms: _6  and  _7
REMARK    5  A    between atoms: _12  and  _14
REMARK    6  A    between atoms: _14  and  _15
REMARK    7  A    between atoms: _14  and  _17
REMARK    8  A    between atoms: _17  and  _18
REMARK    9  A    between atoms: _24  and  _26
REMARK   10  A    between atoms: _26  and  _27
REMARK   11  A    between atoms: _26  and  _29
REMARK   12  A    between atoms: _29  and  _30
REMARK   13  A    between atoms: _30  and  _31
REMARK   14  A    between atoms: _31  and  _32
REMARK   15  A    between atoms: _32  and  _33
REMARK   16  A    between atoms: _37  and  _39
REMARK   17  A    between atoms: _39  and  _40
REMARK   18  A    between atoms: _39  and  _42
REMARK   19  A    between atoms: _42  and  _43
REMARK   20  A    between atoms: _46  and  _48
REMARK   21  A    between atoms: _48  and  _49
REMARK   22  A    between atoms: _48  and  _51
REMARK   23  A    between atoms: _51  and  _52
REMARK   24  A    between atoms: _59  and  _60
REMARK   25  A    between atoms: _65  and  _67
REMARK   26  A    between atoms: _67  and  _68
REMARK   27  A    between atoms: _70  and  _72
REMARK   28  A    between atoms: _72  and  _73
REMARK   29  A    between atoms: _72  and  _75
REMARK   30  A    between atoms: _78  and  _80
REMARK   31  A    between atoms: _80  and  _81
REMARK   32  A    between atoms: _80  and  _83
REMARK   33  A    between atoms: _83  and  _84
REMARK   34  A    between atoms: _87  and  _89
REMARK   35  A    between atoms: _89  and  _90
REMARK   36  A    between atoms: _89  and  _92
REMARK   37  A    between atoms: _92  and  _93
REMARK   38  A    between atoms: _93  and  _94
REMARK   39  A    between atoms: _94  and  _95
REMARK   40  A    between atoms: _95  and  _96
REMARK   41  A    between atoms: _100  and  _102
REMARK   42  A    between atoms: _102  and  _103
REMARK   43  A    between atoms: _102  and  _105
REMARK   44  A    between atoms: _105  and  _106
REMARK   45  A    between atoms: _112  and  _114
REMARK   46  A    between atoms: _114  and  _115
REMARK   47  A    between atoms: _114  and  _117
REMARK   48  A    between atoms: _117  and  _118
REMARK   49  A    between atoms: _118  and  _119
REMARK   50  A    between atoms: _119  and  _120
REMARK   51  A    between atoms: _129  and  _131
REMARK   52  A    between atoms: _131  and  _132
REMARK   53  A    between atoms: _131  and  _134
REMARK   54  A    between atoms: _134  and  _135
REMARK   55  A    between atoms: _139  and  _140
REMARK   56  A    between atoms: _145  and  _147
REMARK   57  A    between atoms: _147  and  _148
REMARK   58  A    between atoms: _147  and  _150
REMARK   59  A    between atoms: _153  and  _155
REMARK   60  A    between atoms: _155  and  _156
REMARK   61  A    between atoms: _155  and  _158
REMARK   62  A    between atoms: _158  and  _159
REMARK   63  A    between atoms: _162  and  _164
REMARK   64  A    between atoms: _164  and  _165
REMARK   65  A    between atoms: _164  and  _167
REMARK   66  A    between atoms: _170  and  _172
REMARK   67  A    between atoms: _172  and  _173
REMARK   68  A    between atoms: _172  and  _175
REMARK   69  A    between atoms: _178  and  _180
REMARK   70  A    between atoms: _180  and  _181
REMARK   71  A    between atoms: _184  and  _186
REMARK   72  A    between atoms: _186  and  _187
REMARK   73  A    between atoms: _186  and  _189
REMARK   74  A    between atoms: _189  and  _190
REMARK   75  A    between atoms: _193  and  _195
REMARK   76  A    between atoms: _195  and  _196
REMARK   77  A    between atoms: _195  and  _198
REMARK   78  A    between atoms: _201  and  _203
REMARK   79  A    between atoms: _203  and  _204
REMARK   80  A    between atoms: _203  and  _206
REMARK   81  A    between atoms: _206  and  _207
REMARK   82  A    between atoms: _212  and  _213
REMARK   83  A    between atoms: _215  and  _217
REMARK   84  A    between atoms: _217  and  _218
REMARK   85  A    between atoms: _217  and  _220
REMARK   86  A    between atoms: _220  and  _221
REMARK   87  A    between atoms: _227  and  _229
REMARK   88  A    between atoms: _229  and  _230
REMARK   89  A    between atoms: _229  and  _232
REMARK   90  A    between atoms: _232  and  _233
REMARK   91  A    between atoms: _233  and  _234
REMARK   92  A    between atoms: _236  and  _238
REMARK   93  A    between atoms: _238  and  _239
REMARK   94  A    between atoms: _238  and  _241
REMARK   95  A    between atoms: _241  and  _242
REMARK   96  A    between atoms: _242  and  _243
REMARK   97  A    between atoms: _245  and  _247
REMARK   98  A    between atoms: _247  and  _248
REMARK                            x       y       z     vdW  Elec       q    Type
REMARK                         _______ _______ _______ _____ _____    ______ ____
ROOT
ATOM      1  CA  ILE A   1      18.487   2.946 -13.196  0.00  0.00    +0.133 C 
ENDROOT
BRANCH   1   2
ATOM      2  N   ILE A   1      17.213   3.067 -12.494  0.00  0.00    -0.239 NA
ATOM      3  H   ILE A   1      16.982   3.956 -12.006  0.00  0.00    +0.142 HD
ENDBRANCH   1   2
BRANCH   1   4
ATOM      4  C   ILE A   1      19.297   1.916 -12.411  0.00  0.00    +0.224 C 
ATOM      5  O   ILE A   1      19.927   1.022 -12.984  0.00  0.00    -0.287 OA
ENDBRANCH   1   4
BRANCH   1   6
ATOM      6  CB  ILE A   1      19.283   4.262 -13.196  0.00  0.00    +0.023 C 
ATOM      7  CG2 ILE A   1      20.667   4.033 -13.810  0.00  0.00    +0.002 C 
BRANCH   6   8
ATOM      8  CG1 ILE A   1      18.530   5.336 -13.975  0.00  0.00    +0.002 C 
ATOM      9  CD1 ILE A   1      19.206   6.679 -13.947  0.00  0.00    +0.000 C 
ENDBRANCH   6   8
ENDBRANCH   1   6
TORSDOF 4
REMARK  Name = ../refined-set-2016/3b7j/3b7j_pocket.pdb
REMARK  98 active torsions:
REMARK  status: ('A' for Active; 'I' for Inactive)
REMARK    1  A    between atoms: _1  and  _3
REMARK    2  A    between atoms: _3  and  _4
REMARK    3  A    between atoms: _3  and  _6
REMARK    4  A    between atoms: _6  and  _7
REMARK    5  A    between atoms: _12  and  _14
REMARK    6  A    between atoms: _14  and  _15
REMARK    7  A    between atoms: _14  and  _17
REMARK    8  A    between atoms: _17  and  _18
REMARK    9  A    between atoms: _24  and  _26
REMARK   10  A    between atoms: _26  and  _27
REMARK   11  A    between atoms: _26  and  _29
REMARK   12  A    between atoms: _29  and  _30
REMARK   13  A    between atoms: _30  and  _31
REMARK   14  A    between atoms: _31  and  _32
REMARK   15  A    between atoms: _32  and  _33
REMARK   16  A    between atoms: _37  and  _39
REMARK   17  A    between atoms: _39  and  _40
REMARK   18  A    between atoms: _39  and  _42
REMARK   19  A    between atoms: _42  and  _43
REMARK   20  A    between atoms: _46  and  _48
REMARK   21  A    between atoms: _48  and  _49
REMARK   22  A    between atoms: _48  and  _51
REMARK   23  A    between atoms: _51  and  _52
REMARK   24  A    between atoms: _59  and  _60
REMARK   25  A    between atoms: _65  and  _67
REMARK   26  A    between atoms: _67  and  _68
REMARK   27  A    between atoms: _70  and  _72
REMARK   28  A    between atoms: _72  and  _73
REMARK   29  A    between atoms: _72  and  _75
REMARK   30  A    between atoms: _78  and  _80
REMARK   31  A    between atoms: _80  and  _81
REMARK   32  A    between atoms: _80  and  _83
REMARK   33  A    between atoms: _83  and  _84
REMARK   34  A    between atoms: _87  and  _89
REMARK   35  A    between atoms: _89  and  _90
REMARK   36  A    between atoms: _89  and  _92
REMARK   37  A    between atoms: _92  and  _93
REMARK   38  A    between atoms: _93  and  _94
REMARK   39  A    between atoms: _94  and  _95
REMARK   40  A    between atoms: _95  and  _96
REMARK   41  A    between atoms: _100  and  _102
REMARK   42  A    between atoms: _102  and  _103
REMARK   43  A    between atoms: _102  and  _105
REMARK   44  A    between atoms: _105  and  _106
REMARK   45  A    between atoms: _112  and  _114
REMARK   46  A    between atoms: _114  and  _115
REMARK   47  A    between atoms: _114  and  _117
REMARK   48  A    between atoms: _117  and  _118
REMARK   49  A    between atoms: _118  and  _119
REMARK   50  A    between atoms: _119  and  _120
REMARK   51  A    between atoms: _129  and  _131
REMARK   52  A    between atoms: _131  and  _132
REMARK   53  A    between atoms: _131  and  _134
REMARK   54  A    between atoms: _134  and  _135
REMARK   55  A    between atoms: _139  and  _140
REMARK   56  A    between atoms: _145  and  _147
REMARK   57  A    between atoms: _147  and  _148
REMARK   58  A    between atoms: _147  and  _150
REMARK   59  A    between atoms: _153  and  _155
REMARK   60  A    between atoms: _155  and  _156
REMARK   61  A    between atoms: _155  and  _158
REMARK   62  A    between atoms: _158  and  _159
REMARK   63  A    between atoms: _162  and  _164
REMARK   64  A    between atoms: _164  and  _165
REMARK   65  A    between atoms: _164  and  _167
REMARK   66  A    between atoms: _170  and  _172
REMARK   67  A    between atoms: _172  and  _173
REMARK   68  A    between atoms: _172  and  _175
REMARK   69  A    between atoms: _178  and  _180
REMARK   70  A    between atoms: _180  and  _181
REMARK   71  A    between atoms: _184  and  _186
REMARK   72  A    between atoms: _186  and  _187
REMARK   73  A    between atoms: _186  and  _189
REMARK   74  A    between atoms: _189  and  _190
REMARK   75  A    between atoms: _193  and  _195
REMARK   76  A    between atoms: _195  and  _196
REMARK   77  A    between atoms: _195  and  _198
REMARK   78  A    between atoms: _201  and  _203
REMARK   79  A    between atoms: _203  and  _204
REMARK   80  A    between atoms: _203  and  _206
REMARK   81  A    between atoms: _206  and  _207
REMARK   82  A    between atoms: _212  and  _213
REMARK   83  A    between atoms: _215  and  _217
REMARK   84  A    between atoms: _217  and  _218
REMARK   85  A    between atoms: _217  and  _220
REMARK   86  A    between atoms: _220  and  _221
REMARK   87  A    between atoms: _227  and  _229
REMARK   88  A    between atoms: _229  and  _230
REMARK   89  A    between atoms: _229  and  _232
REMARK   90  A    between atoms: _232  and  _233
REMARK   91  A    between atoms: _233  and  _234
REMARK   92  A    between atoms: _236  and  _238
REMARK   93  A    between atoms: _238  and  _239
REMARK   94  A    between atoms: _238  and  _241
REMARK   95  A    between atoms: _241  and  _242
REMARK   96  A    between atoms: _242  and  _243
REMARK   97  A    between atoms: _245  and  _247
REMARK   98  A    between atoms: _247  and  _248
REMARK                            x       y       z     vdW  Elec       q    Type
REMARK                         _______ _______ _______ _____ _____    ______ ____
ROOT
ATOM      1  CA  ARG A   3      25.119  12.740 -12.382  0.00  0.00    +0.149 C 
ENDROOT
BRANCH   1   2
ATOM      2  C   ARG A   3      24.323  13.444 -13.462  0.00  0.00    +0.241 C 
ATOM      3  O   ARG A   3      24.342  14.670 -13.539  0.00  0.00    -0.273 OA
ATOM      4  N   ILE A   4      23.639  12.669 -14.303  0.00  0.00    -0.297 N 
ATOM      5  H   ILE A   4      23.659  11.637 -14.173  0.00  0.00    +0.150 HD
BRANCH   4   6
ATOM      6  CA  ILE A   4      22.863  13.233 -15.401  0.00  0.00    +0.149 C 
BRANCH   6   7
ATOM      7  C   ILE A   4      21.484  12.587 -15.529  0.00  0.00    +0.244 C 
ATOM      8  O   ILE A   4      21.355  11.366 -15.482  0.00  0.00    -0.273 OA
ATOM      9  N   PRO A   5      20.431  13.403 -15.701  0.00  0.00    -0.272 N 
ATOM     10  CD  PRO A   5      20.379  14.873 -15.774  0.00  0.00    +0.094 C 
ATOM     11  CG  PRO A   5      19.017  15.116 -16.393  0.00  0.00    +0.024 C 
ATOM     12  CB  PRO A   5      18.182  14.047 -15.771  0.00  0.00    +0.031 C 
ATOM     13  CA  PRO A   5      19.094  12.826 -15.831  0.00  0.00    +0.152 C 
BRANCH  13  14
ATOM     14  C   PRO A   5      18.934  12.037 -17.124  0.00  0.00    +0.241 C 
ATOM     15  N   VAL A   6      18.186  10.948 -17.037  0.00  0.00    -0.297 N 
ATOM     16  H   VAL A   6      17.770  10.707 -16.115  0.00  0.00    +0.150 HD
ATOM     17  O   PRO A   5      19.475  12.399 -18.160  0.00  0.00    -0.273 OA
BRANCH  15  18
ATOM     18  CA  VAL A   6      17.917  10.072 -18.166  0.00  0.00    +0.149 C 
BRANCH  18  19
ATOM     19  C   VAL A   6      16.520  10.392 -18.704  0.00  0.00    +0.241 C 
ATOM     20  O   VAL A   6      15.554  10.472 -17.942  0.00  0.00    -0.273 OA
ATOM     21  N   THR A   7      16.412  10.576 -20.015  0.00  0.00    -0.296 N 
ATOM     22  H   THR A   7      17.252  10.472 -20.619  0.00  0.00    +0.150 HD
BRANCH  21  23
ATOM     23  CA  THR A   7      15.129  10.922 -20.619  0.00  0.00    +0.164 C 
BRANCH  23  24
ATOM     24  CB  THR A   7      15.111  12.409 -21.025  0.00  0.00    +0.136 C 
ATOM     25  CG2 THR A   7      15.608  13.286 -19.873  0.00  0.00    +0.034 C 
BRANCH  24  26
ATOM     26  OG1 THR A   7      15.980  12.602 -22.149  0.00  0.00    -0.382 OA
ATOM     27  HG1 THR A   7      16.901  12.336 -21.902  0.00  0.00    +0.210 HD
ENDBRANCH  24  26
ENDBRANCH  23  24
BRANCH  23  28
ATOM     28  C   THR A   7      14.784  10.095 -21.854  0.00  0.00    +0.229 C 
ATOM     29  O   THR A   7      15.641   9.415 -22.428  0.00  0.00    -0.286 OA
ENDBRANCH  23  28
ENDBRANCH  21  23
ENDBRANCH  18  19
BRANCH  18  30
ATOM     30  CB  VAL A   6      17.990   8.601 -17.710  0.00  0.00    +0.027 C 
ATOM     31  CG2 VAL A   6      19.416   8.270 -17.291  0.00  0.00    +0.002 C 
ATOM     32  CG1 VAL A   6      17.530   7.688 -18.812  0.00  0.00    +0.002 C 
ENDBRANCH  18  30
ENDBRANCH  15  18
ENDBRANCH  13  14
ENDBRANCH   6   7
BRANCH   6  33
ATOM     33  CB  ILE A   4      23.612  13.058 -16.751  0.00  0.00    +0.027 C 
ATOM     34  CG2 ILE A   4      22.795  13.671 -17.895  0.00  0.00    +0.002 C 
BRANCH  33  35
ATOM     35  CG1 ILE A   4      24.996  13.707 -16.673  0.00  0.00    +0.002 C 
ATOM     36  CD1 ILE A   4      25.815  13.579 -17.956  0.00  0.00    +0.000 C 
ENDBRANCH  33  35
ENDBRANCH   6  33
ENDBRANCH   4   6
ENDBRANCH   1   2
BRANCH   1  39
ATOM     37  C   PHE A   2      23.856  11.693 -10.595  0.00  0.00    +0.241 C 
ATOM     38  O   PHE A   2      23.815  12.738  -9.958  0.00  0.00    -0.273 OA
ATOM     39  N   ARG A   3      24.448  11.597 -11.778  0.00  0.00    -0.297 N 
ATOM     40  H   ARG A   3      24.433  10.688 -12.284  0.00  0.00    +0.150 HD
BRANCH  37  41
ATOM     41  CA  PHE A   2      23.220  10.425 -10.043  0.00  0.00    +0.153 C 
BRANCH  41  43
ATOM     42  C   LYS A   1      24.778   9.081  -8.765  0.00  0.00    +0.238 C 
ATOM     43  N   PHE A   2      23.920  10.093  -8.811  0.00  0.00    -0.297 N 
ATOM     44  H   PHE A   2      23.746  10.657  -7.954  0.00  0.00    +0.150 HD
ATOM     45  O   LYS A   1      25.003   8.352  -9.732  0.00  0.00    -0.274 OA
BRANCH  42  46
ATOM     46  CA  LYS A   1      25.478   8.842  -7.437  0.00  0.00    +0.145 C 
BRANCH  46  47
ATOM     47  N   LYS A   1      25.453   7.431  -7.105  0.00  0.00    -0.238 NA
ATOM     48  H   LYS A   1      25.707   6.726  -7.826  0.00  0.00    +0.142 HD
ENDBRANCH  46  47
BRANCH  46  49
ATOM     49  CB  LYS A   1      26.920   9.352  -7.522  0.00  0.00    +0.026 C 
BRANCH  49  50
ATOM     50  CG  LYS A   1      27.073  10.743  -6.933  0.00  0.00    -0.000 C 
BRANCH  50  51
ATOM     51  CD  LYS A   1      27.886  11.689  -7.797  0.00  0.00    -0.024 C 
BRANCH  51  52
ATOM     52  CE  LYS A   1      27.820  13.101  -7.208  0.00  0.00    -0.086 C 
BRANCH  52  53
ATOM     53  NZ  LYS A   1      26.397  13.561  -7.021  0.00  0.00    +0.380 N 
ATOM     54  HZ1 LYS A   1      25.907  12.912  -6.373  0.00  0.00    -0.089 HD
ATOM     55  HZ2 LYS A   1      26.394  14.521  -6.620  0.00  0.00    -0.089 HD
ATOM     56  HZ3 LYS A   1      25.912  13.566  -7.941  0.00  0.00    -0.089 HD
ENDBRANCH  52  53
ENDBRANCH  51  52
ENDBRANCH  50  51
ENDBRANCH  49  50
ENDBRANCH  46  49
ENDBRANCH  42  46
ENDBRANCH  41  43
BRANCH  41  57
ATOM     57  CB  PHE A   2      21.734  10.649  -9.774  0.00  0.00    +0.055 C 
BRANCH  57  58
ATOM     58  CG  PHE A   2      21.037   9.448  -9.217  0.00  0.00    -0.020 A 
ATOM     59  CD2 PHE A   2      20.496   9.472  -7.931  0.00  0.00    -0.004 A 
ATOM     60  CE2 PHE A   2      19.844   8.354  -7.410  0.00  0.00    -0.000 A 
ATOM     61  CZ  PHE A   2      19.729   7.200  -8.178  0.00  0.00    -0.000 A 
ATOM     62  CE1 PHE A   2      20.266   7.167  -9.457  0.00  0.00    -0.000 A 
ATOM     63  CD1 PHE A   2      20.916   8.288  -9.973  0.00  0.00    -0.004 A 
ENDBRANCH  57  58
ENDBRANCH  41  57
ENDBRANCH  37  41
ENDBRANCH   1  39
BRANCH   1  64
ATOM     64  CB  ARG A   3      26.454  12.305 -12.977  0.00  0.00    +0.033 C 
BRANCH  64  65
ATOM     65  CG  ARG A   3      27.455  11.808 -11.972  0.00  0.00    +0.045 C 
BRANCH  65  66
ATOM     66  CD  ARG A   3      28.764  11.490 -12.667  0.00  0.00    +0.174 C 
BRANCH  66  67
ATOM     67  NE  ARG A   3      29.803  11.043 -11.741  0.00  0.00    -0.265 N 
ATOM     68  CZ  ARG A   3      30.257  11.758 -10.714  0.00  0.00    +0.342 C 
ATOM     69  NH2 ARG A   3      31.225  11.269  -9.934  0.00  0.00    -0.292 N 
ATOM     70 HH21 ARG A   3      31.579  11.828  -9.132  0.00  0.00    +0.255 HD
ATOM     71 HH22 ARG A   3      31.625  10.329 -10.129  0.00  0.00    +0.255 HD
ATOM     72  NH1 ARG A   3      29.758  12.965 -10.473  0.00  0.00    -0.292 N 
ATOM     73 HH11 ARG A   3      30.113  13.524  -9.671  0.00  0.00    +0.255 HD
ATOM     74 HH12 ARG A   3      29.013  13.352 -11.087  0.00  0.00    +0.255 HD
ATOM     75  HE  ARG A   3      30.216  10.101 -11.895  0.00  0.00    +0.259 HD
ENDBRANCH  66  67
ENDBRANCH  65  66
ENDBRANCH  64  65
ENDBRANCH   1  64
TORSDOF 29
REMARK  Name = ../refined-set-2016/3b7j/3b7j_pocket.pdb
REMARK  98 active torsions:
REMARK  status: ('A' for Active; 'I' for Inactive)
REMARK    1  A    between atoms: _1  and  _3
REMARK    2  A    between atoms: _3  and  _4
REMARK    3  A    between atoms: _3  and  _6
REMARK    4  A    between atoms: _6  and  _7
REMARK    5  A    between atoms: _12  and  _14
REMARK    6  A    between atoms: _14  and  _15
REMARK    7  A    between atoms: _14  and  _17
REMARK    8  A    between atoms: _17  and  _18
REMARK    9  A    between atoms: _24  and  _26
REMARK   10  A    between atoms: _26  and  _27
REMARK   11  A    between atoms: _26  and  _29
REMARK   12  A    between atoms: _29  and  _30
REMARK   13  A    between atoms: _30  and  _31
REMARK   14  A    between atoms: _31  and  _32
REMARK   15  A    between atoms: _32  and  _33
REMARK   16  A    between atoms: _37  and  _39
REMARK   17  A    between atoms: _39  and  _40
REMARK   18  A    between atoms: _39  and  _42
REMARK   19  A    between atoms: _42  and  _43
REMARK   20  A    between atoms: _46  and  _48
REMARK   21  A    between atoms: _48  and  _49
REMARK   22  A    between atoms: _48  and  _51
REMARK   23  A    between atoms: _51  and  _52
REMARK   24  A    between atoms: _59  and  _60
REMARK   25  A    between atoms: _65  and  _67
REMARK   26  A    between atoms: _67  and  _68
REMARK   27  A    between atoms: _70  and  _72
REMARK   28  A    between atoms: _72  and  _73
REMARK   29  A    between atoms: _72  and  _75
REMARK   30  A    between atoms: _78  and  _80
REMARK   31  A    between atoms: _80  and  _81
REMARK   32  A    between atoms: _80  and  _83
REMARK   33  A    between atoms: _83  and  _84
REMARK   34  A    between atoms: _87  and  _89
REMARK   35  A    between atoms: _89  and  _90
REMARK   36  A    between atoms: _89  and  _92
REMARK   37  A    between atoms: _92  and  _93
REMARK   38  A    between atoms: _93  and  _94
REMARK   39  A    between atoms: _94  and  _95
REMARK   40  A    between atoms: _95  and  _96
REMARK   41  A    between atoms: _100  and  _102
REMARK   42  A    between atoms: _102  and  _103
REMARK   43  A    between atoms: _102  and  _105
REMARK   44  A    between atoms: _105  and  _106
REMARK   45  A    between atoms: _112  and  _114
REMARK   46  A    between atoms: _114  and  _115
REMARK   47  A    between atoms: _114  and  _117
REMARK   48  A    between atoms: _117  and  _118
REMARK   49  A    between atoms: _118  and  _119
REMARK   50  A    between atoms: _119  and  _120
REMARK   51  A    between atoms: _129  and  _131
REMARK   52  A    between atoms: _131  and  _132
REMARK   53  A    between atoms: _131  and  _134
REMARK   54  A    between atoms: _134  and  _135
REMARK   55  A    between atoms: _139  and  _140
REMARK   56  A    between atoms: _145  and  _147
REMARK   57  A    between atoms: _147  and  _148
REMARK   58  A    between atoms: _147  and  _150
REMARK   59  A    between atoms: _153  and  _155
REMARK   60  A    between atoms: _155  and  _156
REMARK   61  A    between atoms: _155  and  _158
REMARK   62  A    between atoms: _158  and  _159
REMARK   63  A    between atoms: _162  and  _164
REMARK   64  A    between atoms: _164  and  _165
REMARK   65  A    between atoms: _164  and  _167
REMARK   66  A    between atoms: _170  and  _172
REMARK   67  A    between atoms: _172  and  _173
REMARK   68  A    between atoms: _172  and  _175
REMARK   69  A    between atoms: _178  and  _180
REMARK   70  A    between atoms: _180  and  _181
REMARK   71  A    between atoms: _184  and  _186
REMARK   72  A    between atoms: _186  and  _187
REMARK   73  A    between atoms: _186  and  _189
REMARK   74  A    between atoms: _189  and  _190
REMARK   75  A    between atoms: _193  and  _195
REMARK   76  A    between atoms: _195  and  _196
REMARK   77  A    between atoms: _195  and  _198
REMARK   78  A    between atoms: _201  and  _203
REMARK   79  A    between atoms: _203  and  _204
REMARK   80  A    between atoms: _203  and  _206
REMARK   81  A    between atoms: _206  and  _207
REMARK   82  A    between atoms: _212  and  _213
REMARK   83  A    between atoms: _215  and  _217
REMARK   84  A    between atoms: _217  and  _218
REMARK   85  A    between atoms: _217  and  _220
REMARK   86  A    between atoms: _220  and  _221
REMARK   87  A    between atoms: _227  and  _229
REMARK   88  A    between atoms: _229  and  _230
REMARK   89  A    between atoms: _229  and  _232
REMARK   90  A    between atoms: _232  and  _233
REMARK   91  A    between atoms: _233  and  _234
REMARK   92  A    between atoms: _236  and  _238
REMARK   93  A    between atoms: _238  and  _239
REMARK   94  A    between atoms: _238  and  _241
REMARK   95  A    between atoms: _241  and  _242
REMARK   96  A    between atoms: _242  and  _243
REMARK   97  A    between atoms: _245  and  _247
REMARK   98  A    between atoms: _247  and  _248
REMARK                            x       y       z     vdW  Elec       q    Type
REMARK                         _______ _______ _______ _____ _____    ______ ____
ROOT
ATOM      1  CA  VAL A   2      24.705   9.304 -15.848  0.00  0.00    +0.148 C 
ENDROOT
BRANCH   1   4
ATOM      2  C   VAL A   1      27.083   9.268 -16.346  0.00  0.00    +0.238 C 
ATOM      3  O   VAL A   1      27.236  10.396 -15.900  0.00  0.00    -0.274 OA
ATOM      4  N   VAL A   2      25.903   8.660 -16.373  0.00  0.00    -0.297 N 
ATOM      5  H   VAL A   2      25.832   7.704 -16.777  0.00  0.00    +0.150 HD
BRANCH   2   6
ATOM      6  CA  VAL A   1      28.270   8.498 -16.916  0.00  0.00    +0.145 C 
BRANCH   6   7
ATOM      7  CB  VAL A   1      29.390   8.454 -15.867  0.00  0.00    +0.025 C 
ATOM      8  CG2 VAL A   1      28.909   7.744 -14.622  0.00  0.00    +0.002 C 
ATOM      9  CG1 VAL A   1      30.613   7.757 -16.451  0.00  0.00    +0.002 C 
ENDBRANCH   6   7
BRANCH   6  10
ATOM     10  N   VAL A   1      28.734   9.152 -18.129  0.00  0.00    -0.238 NA
ATOM     11  H   VAL A   1      29.604   9.721 -18.099  0.00  0.00    +0.142 HD
ENDBRANCH   6  10
ENDBRANCH   2   6
ENDBRANCH   1   4
BRANCH   1  12
ATOM     12  C   VAL A   2      24.472   8.861 -14.410  0.00  0.00    +0.241 C 
ATOM     13  O   VAL A   2      23.757   9.520 -13.652  0.00  0.00    -0.273 OA
ATOM     14  N   ALA A   3      25.088   7.740 -14.038  0.00  0.00    -0.298 N 
ATOM     15  H   ALA A   3      25.670   7.227 -14.731  0.00  0.00    +0.150 HD
BRANCH  14  16
ATOM     16  CA  ALA A   3      24.966   7.215 -12.683  0.00  0.00    +0.137 C 
ATOM     17  CB  ALA A   3      23.592   6.571 -12.488  0.00  0.00    +0.030 C 
BRANCH  16  18
ATOM     18  C   ALA A   3      26.071   6.202 -12.366  0.00  0.00    +0.227 C 
ATOM     19  O   ALA A   3      26.689   5.639 -13.272  0.00  0.00    -0.286 OA
ENDBRANCH  16  18
ENDBRANCH  14  16
ENDBRANCH   1  12
BRANCH   1  20
ATOM     20  CB  VAL A   2      23.461   8.974 -16.710  0.00  0.00    +0.027 C 
ATOM     21  CG2 VAL A   2      23.161   7.487 -16.677  0.00  0.00    +0.002 C 
ATOM     22  CG1 VAL A   2      23.697   9.423 -18.127  0.00  0.00    +0.002 C 
ENDBRANCH   1  20
TORSDOF 8
REMARK  Name = ../refined-set-2016/3b7j/3b7j_pocket.pdb
REMARK  98 active torsions:
REMARK  status: ('A' for Active; 'I' for Inactive)
REMARK    1  A    between atoms: _1  and  _3
REMARK    2  A    between atoms: _3  and  _4
REMARK    3  A    between atoms: _3  and  _6
REMARK    4  A    between atoms: _6  and  _7
REMARK    5  A    between atoms: _12  and  _14
REMARK    6  A    between atoms: _14  and  _15
REMARK    7  A    between atoms: _14  and  _17
REMARK    8  A    between atoms: _17  and  _18
REMARK    9  A    between atoms: _24  and  _26
REMARK   10  A    between atoms: _26  and  _27
REMARK   11  A    between atoms: _26  and  _29
REMARK   12  A    between atoms: _29  and  _30
REMARK   13  A    between atoms: _30  and  _31
REMARK   14  A    between atoms: _31  and  _32
REMARK   15  A    between atoms: _32  and  _33
REMARK   16  A    between atoms: _37  and  _39
REMARK   17  A    between atoms: _39  and  _40
REMARK   18  A    between atoms: _39  and  _42
REMARK   19  A    between atoms: _42  and  _43
REMARK   20  A    between atoms: _46  and  _48
REMARK   21  A    between atoms: _48  and  _49
REMARK   22  A    between atoms: _48  and  _51
REMARK   23  A    between atoms: _51  and  _52
REMARK   24  A    between atoms: _59  and  _60
REMARK   25  A    between atoms: _65  and  _67
REMARK   26  A    between atoms: _67  and  _68
REMARK   27  A    between atoms: _70  and  _72
REMARK   28  A    between atoms: _72  and  _73
REMARK   29  A    between atoms: _72  and  _75
REMARK   30  A    between atoms: _78  and  _80
REMARK   31  A    between atoms: _80  and  _81
REMARK   32  A    between atoms: _80  and  _83
REMARK   33  A    between atoms: _83  and  _84
REMARK   34  A    between atoms: _87  and  _89
REMARK   35  A    between atoms: _89  and  _90
REMARK   36  A    between atoms: _89  and  _92
REMARK   37  A    between atoms: _92  and  _93
REMARK   38  A    between atoms: _93  and  _94
REMARK   39  A    between atoms: _94  and  _95
REMARK   40  A    between atoms: _95  and  _96
REMARK   41  A    between atoms: _100  and  _102
REMARK   42  A    between atoms: _102  and  _103
REMARK   43  A    between atoms: _102  and  _105
REMARK   44  A    between atoms: _105  and  _106
REMARK   45  A    between atoms: _112  and  _114
REMARK   46  A    between atoms: _114  and  _115
REMARK   47  A    between atoms: _114  and  _117
REMARK   48  A    between atoms: _117  and  _118
REMARK   49  A    between atoms: _118  and  _119
REMARK   50  A    between atoms: _119  and  _120
REMARK   51  A    between atoms: _129  and  _131
REMARK   52  A    between atoms: _131  and  _132
REMARK   53  A    between atoms: _131  and  _134
REMARK   54  A    between atoms: _134  and  _135
REMARK   55  A    between atoms: _139  and  _140
REMARK   56  A    between atoms: _145  and  _147
REMARK   57  A    between atoms: _147  and  _148
REMARK   58  A    between atoms: _147  and  _150
REMARK   59  A    between atoms: _153  and  _155
REMARK   60  A    between atoms: _155  and  _156
REMARK   61  A    between atoms: _155  and  _158
REMARK   62  A    between atoms: _158  and  _159
REMARK   63  A    between atoms: _162  and  _164
REMARK   64  A    between atoms: _164  and  _165
REMARK   65  A    between atoms: _164  and  _167
REMARK   66  A    between atoms: _170  and  _172
REMARK   67  A    between atoms: _172  and  _173
REMARK   68  A    between atoms: _172  and  _175
REMARK   69  A    between atoms: _178  and  _180
REMARK   70  A    between atoms: _180  and  _181
REMARK   71  A    between atoms: _184  and  _186
REMARK   72  A    between atoms: _186  and  _187
REMARK   73  A    between atoms: _186  and  _189
REMARK   74  A    between atoms: _189  and  _190
REMARK   75  A    between atoms: _193  and  _195
REMARK   76  A    between atoms: _195  and  _196
REMARK   77  A    between atoms: _195  and  _198
REMARK   78  A    between atoms: _201  and  _203
REMARK   79  A    between atoms: _203  and  _204
REMARK   80  A    between atoms: _203  and  _206
REMARK   81  A    between atoms: _206  and  _207
REMARK   82  A    between atoms: _212  and  _213
REMARK   83  A    between atoms: _215  and  _217
REMARK   84  A    between atoms: _217  and  _218
REMARK   85  A    between atoms: _217  and  _220
REMARK   86  A    between atoms: _220  and  _221
REMARK   87  A    between atoms: _227  and  _229
REMARK   88  A    between atoms: _229  and  _230
REMARK   89  A    between atoms: _229  and  _232
REMARK   90  A    between atoms: _232  and  _233
REMARK   91  A    between atoms: _233  and  _234
REMARK   92  A    between atoms: _236  and  _238
REMARK   93  A    between atoms: _238  and  _239
REMARK   94  A    between atoms: _238  and  _241
REMARK   95  A    between atoms: _241  and  _242
REMARK   96  A    between atoms: _242  and  _243
REMARK   97  A    between atoms: _245  and  _247
REMARK   98  A    between atoms: _247  and  _248
REMARK                            x       y       z     vdW  Elec       q    Type
REMARK                         _______ _______ _______ _____ _____    ______ ____
ROOT
ATOM      1  CA  TYR A   3      16.171  15.571  -6.882  0.00  0.00    +0.153 C 
ENDROOT
BRANCH   1   4
ATOM      2  C   VAL A   2      14.451  16.799  -5.695  0.00  0.00    +0.241 C 
ATOM      3  O   VAL A   2      13.691  15.825  -5.725  0.00  0.00    -0.273 OA
ATOM      4  N   TYR A   3      15.658  16.789  -6.257  0.00  0.00    -0.297 N 
ATOM      5  H   TYR A   3      16.239  17.652  -6.251  0.00  0.00    +0.150 HD
BRANCH   2   6
ATOM      6  CA  VAL A   2      14.012  18.096  -5.029  0.00  0.00    +0.148 C 
BRANCH   6   8
ATOM      7  C   ILE A   1      13.366  19.982  -6.423  0.00  0.00    +0.238 C 
ATOM      8  N   VAL A   2      13.073  18.802  -5.891  0.00  0.00    -0.297 N 
ATOM      9  H   VAL A   2      12.149  18.370  -6.095  0.00  0.00    +0.150 HD
ATOM     10  O   ILE A   1      14.436  20.567  -6.222  0.00  0.00    -0.274 OA
BRANCH   7  11
ATOM     11  CA  ILE A   1      12.281  20.599  -7.300  0.00  0.00    +0.145 C 
BRANCH  11  12
ATOM     12  N   ILE A   1      12.163  22.021  -7.014  0.00  0.00    -0.238 NA
ATOM     13  H   ILE A   1      13.023  22.604  -6.960  0.00  0.00    +0.142 HD
ENDBRANCH  11  12
BRANCH  11  14
ATOM     14  CB  ILE A   1      12.618  20.318  -8.774  0.00  0.00    +0.025 C 
ATOM     15  CG2 ILE A   1      13.907  21.003  -9.157  0.00  0.00    +0.002 C 
BRANCH  14  16
ATOM     16  CG1 ILE A   1      12.753  18.805  -8.986  0.00  0.00    +0.002 C 
ATOM     17  CD1 ILE A   1      11.544  17.981  -8.489  0.00  0.00    +0.000 C 
ENDBRANCH  14  16
ENDBRANCH  11  14
ENDBRANCH   7  11
ENDBRANCH   6   8
BRANCH   6  18
ATOM     18  CB  VAL A   2      13.362  17.753  -3.668  0.00  0.00    +0.027 C 
ATOM     19  CG2 VAL A   2      14.344  16.979  -2.791  0.00  0.00    +0.002 C 
ATOM     20  CG1 VAL A   2      12.913  19.025  -2.977  0.00  0.00    +0.002 C 
ENDBRANCH   6  18
ENDBRANCH   2   6
ENDBRANCH   1   4
BRANCH   1  21
ATOM     21  C   TYR A   3      17.305  15.026  -6.014  0.00  0.00    +0.241 C 
ATOM     22  O   TYR A   3      17.973  15.779  -5.287  0.00  0.00    -0.273 OA
ATOM     23  N   PHE A   4      17.522  13.718  -6.074  0.00  0.00    -0.297 N 
ATOM     24  H   PHE A   4      16.949  13.119  -6.702  0.00  0.00    +0.150 HD
BRANCH  23  25
ATOM     25  CA  PHE A   4      18.565  13.131  -5.256  0.00  0.00    +0.153 C 
BRANCH  25  26
ATOM     26  C   PHE A   4      19.916  12.989  -5.926  0.00  0.00    +0.241 C 
ATOM     27  N   MET A   5      20.949  13.389  -5.201  0.00  0.00    -0.298 N 
ATOM     28  H   MET A   5      20.784  13.750  -4.240  0.00  0.00    +0.150 HD
ATOM     29  O   PHE A   4      20.026  12.553  -7.064  0.00  0.00    -0.273 OA
BRANCH  27  30
ATOM     30  CA  MET A   5      22.302  13.337  -5.712  0.00  0.00    +0.138 C 
BRANCH  30  31
ATOM     31  C   MET A   5      22.938  11.988  -5.410  0.00  0.00    +0.227 C 
ATOM     32  O   MET A   5      23.522  11.351  -6.287  0.00  0.00    -0.286 OA
ENDBRANCH  30  31
BRANCH  30  33
ATOM     33  CB  MET A   5      23.123  14.460  -5.081  0.00  0.00    +0.039 C 
BRANCH  33  34
ATOM     34  CG  MET A   5      22.577  15.863  -5.352  0.00  0.00    +0.060 C 
BRANCH  34  35
ATOM     35  SD  MET A   5      23.468  17.141  -4.411  0.00  0.00    -0.139 S 
ATOM     36  CE  MET A   5      25.053  17.202  -5.336  0.00  0.00    +0.069 C 
ENDBRANCH  34  35
ENDBRANCH  33  34
ENDBRANCH  30  33
ENDBRANCH  27  30
ENDBRANCH  25  26
BRANCH  25  37
ATOM     37  CB  PHE A   4      18.075  11.806  -4.684  0.00  0.00    +0.055 C 
BRANCH  37  38
ATOM     38  CG  PHE A   4      17.135  11.990  -3.533  0.00  0.00    -0.020 A 
ATOM     39  CD2 PHE A   4      17.588  11.849  -2.218  0.00  0.00    -0.004 A 
ATOM     40  CE2 PHE A   4      16.748  12.115  -1.139  0.00  0.00    -0.000 A 
ATOM     41  CZ  PHE A   4      15.435  12.526  -1.369  0.00  0.00    -0.000 A 
ATOM     42  CE1 PHE A   4      14.968  12.667  -2.679  0.00  0.00    -0.000 A 
ATOM     43  CD1 PHE A   4      15.819  12.397  -3.751  0.00  0.00    -0.004 A 
ENDBRANCH  37  38
ENDBRANCH  25  37
ENDBRANCH  23  25
ENDBRANCH   1  21
BRANCH   1  44
ATOM     44  CB  TYR A   3      16.673  15.837  -8.305  0.00  0.00    +0.055 C 
BRANCH  44  45
ATOM     45  CG  TYR A   3      17.867  16.762  -8.401  0.00  0.00    -0.020 A 
ATOM     46  CD2 TYR A   3      19.157  16.289  -8.155  0.00  0.00    -0.001 A 
ATOM     47  CE2 TYR A   3      20.275  17.124  -8.282  0.00  0.00    +0.036 A 
ATOM     48  CZ  TYR A   3      20.104  18.446  -8.659  0.00  0.00    +0.134 A 
ATOM     49  CE1 TYR A   3      18.821  18.947  -8.910  0.00  0.00    +0.036 A 
ATOM     50  CD1 TYR A   3      17.713  18.102  -8.775  0.00  0.00    -0.001 A 
BRANCH  48  51
ATOM     51  OH  TYR A   3      21.216  19.266  -8.784  0.00  0.00    -0.506 OA
ATOM     52  HH  TYR A   3      20.927  20.172  -9.058  0.00  0.00    +0.292 HD
ENDBRANCH  48  51
ENDBRANCH  44  45
ENDBRANCH   1  44
TORSDOF 21
REMARK  Name = ../refined-set-2016/3b7j/3b7j_pocket.pdb
REMARK  98 active torsions:
REMARK  status: ('A' for Active; 'I' for Inactive)
REMARK    1  A    between atoms: _1  and  _3
REMARK    2  A    between atoms: _3  and  _4
REMARK    3  A    between atoms: _3  and  _6
REMARK    4  A    between atoms: _6  and  _7
REMARK    5  A    between atoms: _12  and  _14
REMARK    6  A    between atoms: _14  and  _15
REMARK    7  A    between atoms: _14  and  _17
REMARK    8  A    between atoms: _17  and  _18
REMARK    9  A    between atoms: _24  and  _26
REMARK   10  A    between atoms: _26  and  _27
REMARK   11  A    between atoms: _26  and  _29
REMARK   12  A    between atoms: _29  and  _30
REMARK   13  A    between atoms: _30  and  _31
REMARK   14  A    between atoms: _31  and  _32
REMARK   15  A    between atoms: _32  and  _33
REMARK   16  A    between atoms: _37  and  _39
REMARK   17  A    between atoms: _39  and  _40
REMARK   18  A    between atoms: _39  and  _42
REMARK   19  A    between atoms: _42  and  _43
REMARK   20  A    between atoms: _46  and  _48
REMARK   21  A    between atoms: _48  and  _49
REMARK   22  A    between atoms: _48  and  _51
REMARK   23  A    between atoms: _51  and  _52
REMARK   24  A    between atoms: _59  and  _60
REMARK   25  A    between atoms: _65  and  _67
REMARK   26  A    between atoms: _67  and  _68
REMARK   27  A    between atoms: _70  and  _72
REMARK   28  A    between atoms: _72  and  _73
REMARK   29  A    between atoms: _72  and  _75
REMARK   30  A    between atoms: _78  and  _80
REMARK   31  A    between atoms: _80  and  _81
REMARK   32  A    between atoms: _80  and  _83
REMARK   33  A    between atoms: _83  and  _84
REMARK   34  A    between atoms: _87  and  _89
REMARK   35  A    between atoms: _89  and  _90
REMARK   36  A    between atoms: _89  and  _92
REMARK   37  A    between atoms: _92  and  _93
REMARK   38  A    between atoms: _93  and  _94
REMARK   39  A    between atoms: _94  and  _95
REMARK   40  A    between atoms: _95  and  _96
REMARK   41  A    between atoms: _100  and  _102
REMARK   42  A    between atoms: _102  and  _103
REMARK   43  A    between atoms: _102  and  _105
REMARK   44  A    between atoms: _105  and  _106
REMARK   45  A    between atoms: _112  and  _114
REMARK   46  A    between atoms: _114  and  _115
REMARK   47  A    between atoms: _114  and  _117
REMARK   48  A    between atoms: _117  and  _118
REMARK   49  A    between atoms: _118  and  _119
REMARK   50  A    between atoms: _119  and  _120
REMARK   51  A    between atoms: _129  and  _131
REMARK   52  A    between atoms: _131  and  _132
REMARK   53  A    between atoms: _131  and  _134
REMARK   54  A    between atoms: _134  and  _135
REMARK   55  A    between atoms: _139  and  _140
REMARK   56  A    between atoms: _145  and  _147
REMARK   57  A    between atoms: _147  and  _148
REMARK   58  A    between atoms: _147  and  _150
REMARK   59  A    between atoms: _153  and  _155
REMARK   60  A    between atoms: _155  and  _156
REMARK   61  A    between atoms: _155  and  _158
REMARK   62  A    between atoms: _158  and  _159
REMARK   63  A    between atoms: _162  and  _164
REMARK   64  A    between atoms: _164  and  _165
REMARK   65  A    between atoms: _164  and  _167
REMARK   66  A    between atoms: _170  and  _172
REMARK   67  A    between atoms: _172  and  _173
REMARK   68  A    between atoms: _172  and  _175
REMARK   69  A    between atoms: _178  and  _180
REMARK   70  A    between atoms: _180  and  _181
REMARK   71  A    between atoms: _184  and  _186
REMARK   72  A    between atoms: _186  and  _187
REMARK   73  A    between atoms: _186  and  _189
REMARK   74  A    between atoms: _189  and  _190
REMARK   75  A    between atoms: _193  and  _195
REMARK   76  A    between atoms: _195  and  _196
REMARK   77  A    between atoms: _195  and  _198
REMARK   78  A    between atoms: _201  and  _203
REMARK   79  A    between atoms: _203  and  _204
REMARK   80  A    between atoms: _203  and  _206
REMARK   81  A    between atoms: _206  and  _207
REMARK   82  A    between atoms: _212  and  _213
REMARK   83  A    between atoms: _215  and  _217
REMARK   84  A    between atoms: _217  and  _218
REMARK   85  A    between atoms: _217  and  _220
REMARK   86  A    between atoms: _220  and  _221
REMARK   87  A    between atoms: _227  and  _229
REMARK   88  A    between atoms: _229  and  _230
REMARK   89  A    between atoms: _229  and  _232
REMARK   90  A    between atoms: _232  and  _233
REMARK   91  A    between atoms: _233  and  _234
REMARK   92  A    between atoms: _236  and  _238
REMARK   93  A    between atoms: _238  and  _239
REMARK   94  A    between atoms: _238  and  _241
REMARK   95  A    between atoms: _241  and  _242
REMARK   96  A    between atoms: _242  and  _243
REMARK   97  A    between atoms: _245  and  _247
REMARK   98  A    between atoms: _247  and  _248
REMARK                            x       y       z     vdW  Elec       q    Type
REMARK                         _______ _______ _______ _____ _____    ______ ____
ROOT
ATOM      1  CA  MET A   1      19.417  19.132  -3.337  0.00  0.00    +0.134 C 
ENDROOT
BRANCH   1   2
ATOM      2  N   MET A   1      19.162  17.727  -3.094  0.00  0.00    -0.239 NA
ATOM      3  H   MET A   1      18.668  17.166  -3.817  0.00  0.00    +0.142 HD
ENDBRANCH   1   2
BRANCH   1   4
ATOM      4  C   MET A   1      18.119  19.778  -3.784  0.00  0.00    +0.224 C 
ATOM      5  O   MET A   1      17.459  19.285  -4.697  0.00  0.00    -0.287 OA
ENDBRANCH   1   4
BRANCH   1   6
ATOM      6  CB  MET A   1      20.459  19.332  -4.417  0.00  0.00    +0.037 C 
BRANCH   6   7
ATOM      7  CG  MET A   1      20.971  20.747  -4.427  0.00  0.00    +0.059 C 
BRANCH   7   8
ATOM      8  SD  MET A   1      21.157  21.344  -6.084  0.00  0.00    -0.139 S 
ATOM      9  CE  MET A   1      22.771  20.545  -6.564  0.00  0.00    +0.069 C 
ENDBRANCH   7   8
ENDBRANCH   6   7
ENDBRANCH   1   6
TORSDOF 5
REMARK  Name = ../refined-set-2016/3b7j/3b7j_pocket.pdb
REMARK  98 active torsions:
REMARK  status: ('A' for Active; 'I' for Inactive)
REMARK    1  A    between atoms: _1  and  _3
REMARK    2  A    between atoms: _3  and  _4
REMARK    3  A    between atoms: _3  and  _6
REMARK    4  A    between atoms: _6  and  _7
REMARK    5  A    between atoms: _12  and  _14
REMARK    6  A    between atoms: _14  and  _15
REMARK    7  A    between atoms: _14  and  _17
REMARK    8  A    between atoms: _17  and  _18
REMARK    9  A    between atoms: _24  and  _26
REMARK   10  A    between atoms: _26  and  _27
REMARK   11  A    between atoms: _26  and  _29
REMARK   12  A    between atoms: _29  and  _30
REMARK   13  A    between atoms: _30  and  _31
REMARK   14  A    between atoms: _31  and  _32
REMARK   15  A    between atoms: _32  and  _33
REMARK   16  A    between atoms: _37  and  _39
REMARK   17  A    between atoms: _39  and  _40
REMARK   18  A    between atoms: _39  and  _42
REMARK   19  A    between atoms: _42  and  _43
REMARK   20  A    between atoms: _46  and  _48
REMARK   21  A    between atoms: _48  and  _49
REMARK   22  A    between atoms: _48  and  _51
REMARK   23  A    between atoms: _51  and  _52
REMARK   24  A    between atoms: _59  and  _60
REMARK   25  A    between atoms: _65  and  _67
REMARK   26  A    between atoms: _67  and  _68
REMARK   27  A    between atoms: _70  and  _72
REMARK   28  A    between atoms: _72  and  _73
REMARK   29  A    between atoms: _72  and  _75
REMARK   30  A    between atoms: _78  and  _80
REMARK   31  A    between atoms: _80  and  _81
REMARK   32  A    between atoms: _80  and  _83
REMARK   33  A    between atoms: _83  and  _84
REMARK   34  A    between atoms: _87  and  _89
REMARK   35  A    between atoms: _89  and  _90
REMARK   36  A    between atoms: _89  and  _92
REMARK   37  A    between atoms: _92  and  _93
REMARK   38  A    between atoms: _93  and  _94
REMARK   39  A    between atoms: _94  and  _95
REMARK   40  A    between atoms: _95  and  _96
REMARK   41  A    between atoms: _100  and  _102
REMARK   42  A    between atoms: _102  and  _103
REMARK   43  A    between atoms: _102  and  _105
REMARK   44  A    between atoms: _105  and  _106
REMARK   45  A    between atoms: _112  and  _114
REMARK   46  A    between atoms: _114  and  _115
REMARK   47  A    between atoms: _114  and  _117
REMARK   48  A    between atoms: _117  and  _118
REMARK   49  A    between atoms: _118  and  _119
REMARK   50  A    between atoms: _119  and  _120
REMARK   51  A    between atoms: _129  and  _131
REMARK   52  A    between atoms: _131  and  _132
REMARK   53  A    between atoms: _131  and  _134
REMARK   54  A    between atoms: _134  and  _135
REMARK   55  A    between atoms: _139  and  _140
REMARK   56  A    between atoms: _145  and  _147
REMARK   57  A    between atoms: _147  and  _148
REMARK   58  A    between atoms: _147  and  _150
REMARK   59  A    between atoms: _153  and  _155
REMARK   60  A    between atoms: _155  and  _156
REMARK   61  A    between atoms: _155  and  _158
REMARK   62  A    between atoms: _158  and  _159
REMARK   63  A    between atoms: _162  and  _164
REMARK   64  A    between atoms: _164  and  _165
REMARK   65  A    between atoms: _164  and  _167
REMARK   66  A    between atoms: _170  and  _172
REMARK   67  A    between atoms: _172  and  _173
REMARK   68  A    between atoms: _172  and  _175
REMARK   69  A    between atoms: _178  and  _180
REMARK   70  A    between atoms: _180  and  _181
REMARK   71  A    between atoms: _184  and  _186
REMARK   72  A    between atoms: _186  and  _187
REMARK   73  A    between atoms: _186  and  _189
REMARK   74  A    between atoms: _189  and  _190
REMARK   75  A    between atoms: _193  and  _195
REMARK   76  A    between atoms: _195  and  _196
REMARK   77  A    between atoms: _195  and  _198
REMARK   78  A    between atoms: _201  and  _203
REMARK   79  A    between atoms: _203  and  _204
REMARK   80  A    between atoms: _203  and  _206
REMARK   81  A    between atoms: _206  and  _207
REMARK   82  A    between atoms: _212  and  _213
REMARK   83  A    between atoms: _215  and  _217
REMARK   84  A    between atoms: _217  and  _218
REMARK   85  A    between atoms: _217  and  _220
REMARK   86  A    between atoms: _220  and  _221
REMARK   87  A    between atoms: _227  and  _229
REMARK   88  A    between atoms: _229  and  _230
REMARK   89  A    between atoms: _229  and  _232
REMARK   90  A    between atoms: _232  and  _233
REMARK   91  A    between atoms: _233  and  _234
REMARK   92  A    between atoms: _236  and  _238
REMARK   93  A    between atoms: _238  and  _239
REMARK   94  A    between atoms: _238  and  _241
REMARK   95  A    between atoms: _241  and  _242
REMARK   96  A    between atoms: _242  and  _243
REMARK   97  A    between atoms: _245  and  _247
REMARK   98  A    between atoms: _247  and  _248
REMARK                            x       y       z     vdW  Elec       q    Type
REMARK                         _______ _______ _______ _____ _____    ______ ____
ROOT
ATOM      1  CA  ALA A   1      16.491  23.678  -6.635  0.00  0.00    +0.133 C 
ATOM      2  CB  ALA A   1      17.312  23.029  -7.752  0.00  0.00    +0.027 C 
ENDROOT
BRANCH   1   3
ATOM      3  N   ALA A   1      16.200  22.688  -5.605  0.00  0.00    -0.239 NA
ATOM      4  H   ALA A   1      15.449  21.986  -5.762  0.00  0.00    +0.142 HD
ENDBRANCH   1   3
BRANCH   1   5
ATOM      5  C   ALA A   1      15.249  24.328  -7.226  0.00  0.00    +0.224 C 
ATOM      6  O   ALA A   1      14.124  23.871  -7.009  0.00  0.00    -0.287 OA
ENDBRANCH   1   5
TORSDOF 2
REMARK  Name = ../refined-set-2016/3b7j/3b7j_pocket.pdb
REMARK  98 active torsions:
REMARK  status: ('A' for Active; 'I' for Inactive)
REMARK    1  A    between atoms: _1  and  _3
REMARK    2  A    between atoms: _3  and  _4
REMARK    3  A    between atoms: _3  and  _6
REMARK    4  A    between atoms: _6  and  _7
REMARK    5  A    between atoms: _12  and  _14
REMARK    6  A    between atoms: _14  and  _15
REMARK    7  A    between atoms: _14  and  _17
REMARK    8  A    between atoms: _17  and  _18
REMARK    9  A    between atoms: _24  and  _26
REMARK   10  A    between atoms: _26  and  _27
REMARK   11  A    between atoms: _26  and  _29
REMARK   12  A    between atoms: _29  and  _30
REMARK   13  A    between atoms: _30  and  _31
REMARK   14  A    between atoms: _31  and  _32
REMARK   15  A    between atoms: _32  and  _33
REMARK   16  A    between atoms: _37  and  _39
REMARK   17  A    between atoms: _39  and  _40
REMARK   18  A    between atoms: _39  and  _42
REMARK   19  A    between atoms: _42  and  _43
REMARK   20  A    between atoms: _46  and  _48
REMARK   21  A    between atoms: _48  and  _49
REMARK   22  A    between atoms: _48  and  _51
REMARK   23  A    between atoms: _51  and  _52
REMARK   24  A    between atoms: _59  and  _60
REMARK   25  A    between atoms: _65  and  _67
REMARK   26  A    between atoms: _67  and  _68
REMARK   27  A    between atoms: _70  and  _72
REMARK   28  A    between atoms: _72  and  _73
REMARK   29  A    between atoms: _72  and  _75
REMARK   30  A    between atoms: _78  and  _80
REMARK   31  A    between atoms: _80  and  _81
REMARK   32  A    between atoms: _80  and  _83
REMARK   33  A    between atoms: _83  and  _84
REMARK   34  A    between atoms: _87  and  _89
REMARK   35  A    between atoms: _89  and  _90
REMARK   36  A    between atoms: _89  and  _92
REMARK   37  A    between atoms: _92  and  _93
REMARK   38  A    between atoms: _93  and  _94
REMARK   39  A    between atoms: _94  and  _95
REMARK   40  A    between atoms: _95  and  _96
REMARK   41  A    between atoms: _100  and  _102
REMARK   42  A    between atoms: _102  and  _103
REMARK   43  A    between atoms: _102  and  _105
REMARK   44  A    between atoms: _105  and  _106
REMARK   45  A    between atoms: _112  and  _114
REMARK   46  A    between atoms: _114  and  _115
REMARK   47  A    between atoms: _114  and  _117
REMARK   48  A    between atoms: _117  and  _118
REMARK   49  A    between atoms: _118  and  _119
REMARK   50  A    between atoms: _119  and  _120
REMARK   51  A    between atoms: _129  and  _131
REMARK   52  A    between atoms: _131  and  _132
REMARK   53  A    between atoms: _131  and  _134
REMARK   54  A    between atoms: _134  and  _135
REMARK   55  A    between atoms: _139  and  _140
REMARK   56  A    between atoms: _145  and  _147
REMARK   57  A    between atoms: _147  and  _148
REMARK   58  A    between atoms: _147  and  _150
REMARK   59  A    between atoms: _153  and  _155
REMARK   60  A    between atoms: _155  and  _156
REMARK   61  A    between atoms: _155  and  _158
REMARK   62  A    between atoms: _158  and  _159
REMARK   63  A    between atoms: _162  and  _164
REMARK   64  A    between atoms: _164  and  _165
REMARK   65  A    between atoms: _164  and  _167
REMARK   66  A    between atoms: _170  and  _172
REMARK   67  A    between atoms: _172  and  _173
REMARK   68  A    between atoms: _172  and  _175
REMARK   69  A    between atoms: _178  and  _180
REMARK   70  A    between atoms: _180  and  _181
REMARK   71  A    between atoms: _184  and  _186
REMARK   72  A    between atoms: _186  and  _187
REMARK   73  A    between atoms: _186  and  _189
REMARK   74  A    between atoms: _189  and  _190
REMARK   75  A    between atoms: _193  and  _195
REMARK   76  A    between atoms: _195  and  _196
REMARK   77  A    between atoms: _195  and  _198
REMARK   78  A    between atoms: _201  and  _203
REMARK   79  A    between atoms: _203  and  _204
REMARK   80  A    between atoms: _203  and  _206
REMARK   81  A    between atoms: _206  and  _207
REMARK   82  A    between atoms: _212  and  _213
REMARK   83  A    between atoms: _215  and  _217
REMARK   84  A    between atoms: _217  and  _218
REMARK   85  A    between atoms: _217  and  _220
REMARK   86  A    between atoms: _220  and  _221
REMARK   87  A    between atoms: _227  and  _229
REMARK   88  A    between atoms: _229  and  _230
REMARK   89  A    between atoms: _229  and  _232
REMARK   90  A    between atoms: _232  and  _233
REMARK   91  A    between atoms: _233  and  _234
REMARK   92  A    between atoms: _236  and  _238
REMARK   93  A    between atoms: _238  and  _239
REMARK   94  A    between atoms: _238  and  _241
REMARK   95  A    between atoms: _241  and  _242
REMARK   96  A    between atoms: _242  and  _243
REMARK   97  A    between atoms: _245  and  _247
REMARK   98  A    between atoms: _247  and  _248
REMARK                            x       y       z     vdW  Elec       q    Type
REMARK                         _______ _______ _______ _____ _____    ______ ____
ROOT
ATOM      1  O   HOH     1      18.779  10.210 -11.679  0.00  0.00    +0.000 OA
ENDROOT
TORSDOF 0
REMARK  Name = ../refined-set-2016/3b7j/3b7j_pocket.pdb
REMARK  98 active torsions:
REMARK  status: ('A' for Active; 'I' for Inactive)
REMARK    1  A    between atoms: _1  and  _3
REMARK    2  A    between atoms: _3  and  _4
REMARK    3  A    between atoms: _3  and  _6
REMARK    4  A    between atoms: _6  and  _7
REMARK    5  A    between atoms: _12  and  _14
REMARK    6  A    between atoms: _14  and  _15
REMARK    7  A    between atoms: _14  and  _17
REMARK    8  A    between atoms: _17  and  _18
REMARK    9  A    between atoms: _24  and  _26
REMARK   10  A    between atoms: _26  and  _27
REMARK   11  A    between atoms: _26  and  _29
REMARK   12  A    between atoms: _29  and  _30
REMARK   13  A    between atoms: _30  and  _31
REMARK   14  A    between atoms: _31  and  _32
REMARK   15  A    between atoms: _32  and  _33
REMARK   16  A    between atoms: _37  and  _39
REMARK   17  A    between atoms: _39  and  _40
REMARK   18  A    between atoms: _39  and  _42
REMARK   19  A    between atoms: _42  and  _43
REMARK   20  A    between atoms: _46  and  _48
REMARK   21  A    between atoms: _48  and  _49
REMARK   22  A    between atoms: _48  and  _51
REMARK   23  A    between atoms: _51  and  _52
REMARK   24  A    between atoms: _59  and  _60
REMARK   25  A    between atoms: _65  and  _67
REMARK   26  A    between atoms: _67  and  _68
REMARK   27  A    between atoms: _70  and  _72
REMARK   28  A    between atoms: _72  and  _73
REMARK   29  A    between atoms: _72  and  _75
REMARK   30  A    between atoms: _78  and  _80
REMARK   31  A    between atoms: _80  and  _81
REMARK   32  A    between atoms: _80  and  _83
REMARK   33  A    between atoms: _83  and  _84
REMARK   34  A    between atoms: _87  and  _89
REMARK   35  A    between atoms: _89  and  _90
REMARK   36  A    between atoms: _89  and  _92
REMARK   37  A    between atoms: _92  and  _93
REMARK   38  A    between atoms: _93  and  _94
REMARK   39  A    between atoms: _94  and  _95
REMARK   40  A    between atoms: _95  and  _96
REMARK   41  A    between atoms: _100  and  _102
REMARK   42  A    between atoms: _102  and  _103
REMARK   43  A    between atoms: _102  and  _105
REMARK   44  A    between atoms: _105  and  _106
REMARK   45  A    between atoms: _112  and  _114
REMARK   46  A    between atoms: _114  and  _115
REMARK   47  A    between atoms: _114  and  _117
REMARK   48  A    between atoms: _117  and  _118
REMARK   49  A    between atoms: _118  and  _119
REMARK   50  A    between atoms: _119  and  _120
REMARK   51  A    between atoms: _129  and  _131
REMARK   52  A    between atoms: _131  and  _132
REMARK   53  A    between atoms: _131  and  _134
REMARK   54  A    between atoms: _134  and  _135
REMARK   55  A    between atoms: _139  and  _140
REMARK   56  A    between atoms: _145  and  _147
REMARK   57  A    between atoms: _147  and  _148
REMARK   58  A    between atoms: _147  and  _150
REMARK   59  A    between atoms: _153  and  _155
REMARK   60  A    between atoms: _155  and  _156
REMARK   61  A    between atoms: _155  and  _158
REMARK   62  A    between atoms: _158  and  _159
REMARK   63  A    between atoms: _162  and  _164
REMARK   64  A    between atoms: _164  and  _165
REMARK   65  A    between atoms: _164  and  _167
REMARK   66  A    between atoms: _170  and  _172
REMARK   67  A    between atoms: _172  and  _173
REMARK   68  A    between atoms: _172  and  _175
REMARK   69  A    between atoms: _178  and  _180
REMARK   70  A    between atoms: _180  and  _181
REMARK   71  A    between atoms: _184  and  _186
REMARK   72  A    between atoms: _186  and  _187
REMARK   73  A    between atoms: _186  and  _189
REMARK   74  A    between atoms: _189  and  _190
REMARK   75  A    between atoms: _193  and  _195
REMARK   76  A    between atoms: _195  and  _196
REMARK   77  A    between atoms: _195  and  _198
REMARK   78  A    between atoms: _201  and  _203
REMARK   79  A    between atoms: _203  and  _204
REMARK   80  A    between atoms: _203  and  _206
REMARK   81  A    between atoms: _206  and  _207
REMARK   82  A    between atoms: _212  and  _213
REMARK   83  A    between atoms: _215  and  _217
REMARK   84  A    between atoms: _217  and  _218
REMARK   85  A    between atoms: _217  and  _220
REMARK   86  A    between atoms: _220  and  _221
REMARK   87  A    between atoms: _227  and  _229
REMARK   88  A    between atoms: _229  and  _230
REMARK   89  A    between atoms: _229  and  _232
REMARK   90  A    between atoms: _232  and  _233
REMARK   91  A    between atoms: _233  and  _234
REMARK   92  A    between atoms: _236  and  _238
REMARK   93  A    between atoms: _238  and  _239
REMARK   94  A    between atoms: _238  and  _241
REMARK   95  A    between atoms: _241  and  _242
REMARK   96  A    between atoms: _242  and  _243
REMARK   97  A    between atoms: _245  and  _247
REMARK   98  A    between atoms: _247  and  _248
REMARK                            x       y       z     vdW  Elec       q    Type
REMARK                         _______ _______ _______ _____ _____    ______ ____
ROOT
ATOM      1  O   HOH     1      17.147  10.051 -14.426  0.00  0.00    +0.000 OA
ENDROOT
TORSDOF 0
REMARK  Name = ../refined-set-2016/3b7j/3b7j_pocket.pdb
REMARK  98 active torsions:
REMARK  status: ('A' for Active; 'I' for Inactive)
REMARK    1  A    between atoms: _1  and  _3
REMARK    2  A    between atoms: _3  and  _4
REMARK    3  A    between atoms: _3  and  _6
REMARK    4  A    between atoms: _6  and  _7
REMARK    5  A    between atoms: _12  and  _14
REMARK    6  A    between atoms: _14  and  _15
REMARK    7  A    between atoms: _14  and  _17
REMARK    8  A    between atoms: _17  and  _18
REMARK    9  A    between atoms: _24  and  _26
REMARK   10  A    between atoms: _26  and  _27
REMARK   11  A    between atoms: _26  and  _29
REMARK   12  A    between atoms: _29  and  _30
REMARK   13  A    between atoms: _30  and  _31
REMARK   14  A    between atoms: _31  and  _32
REMARK   15  A    between atoms: _32  and  _33
REMARK   16  A    between atoms: _37  and  _39
REMARK   17  A    between atoms: _39  and  _40
REMARK   18  A    between atoms: _39  and  _42
REMARK   19  A    between atoms: _42  and  _43
REMARK   20  A    between atoms: _46  and  _48
REMARK   21  A    between atoms: _48  and  _49
REMARK   22  A    between atoms: _48  and  _51
REMARK   23  A    between atoms: _51  and  _52
REMARK   24  A    between atoms: _59  and  _60
REMARK   25  A    between atoms: _65  and  _67
REMARK   26  A    between atoms: _67  and  _68
REMARK   27  A    between atoms: _70  and  _72
REMARK   28  A    between atoms: _72  and  _73
REMARK   29  A    between atoms: _72  and  _75
REMARK   30  A    between atoms: _78  and  _80
REMARK   31  A    between atoms: _80  and  _81
REMARK   32  A    between atoms: _80  and  _83
REMARK   33  A    between atoms: _83  and  _84
REMARK   34  A    between atoms: _87  and  _89
REMARK   35  A    between atoms: _89  and  _90
REMARK   36  A    between atoms: _89  and  _92
REMARK   37  A    between atoms: _92  and  _93
REMARK   38  A    between atoms: _93  and  _94
REMARK   39  A    between atoms: _94  and  _95
REMARK   40  A    between atoms: _95  and  _96
REMARK   41  A    between atoms: _100  and  _102
REMARK   42  A    between atoms: _102  and  _103
REMARK   43  A    between atoms: _102  and  _105
REMARK   44  A    between atoms: _105  and  _106
REMARK   45  A    between atoms: _112  and  _114
REMARK   46  A    between atoms: _114  and  _115
REMARK   47  A    between atoms: _114  and  _117
REMARK   48  A    between atoms: _117  and  _118
REMARK   49  A    between atoms: _118  and  _119
REMARK   50  A    between atoms: _119  and  _120
REMARK   51  A    between atoms: _129  and  _131
REMARK   52  A    between atoms: _131  and  _132
REMARK   53  A    between atoms: _131  and  _134
REMARK   54  A    between atoms: _134  and  _135
REMARK   55  A    between atoms: _139  and  _140
REMARK   56  A    between atoms: _145  and  _147
REMARK   57  A    between atoms: _147  and  _148
REMARK   58  A    between atoms: _147  and  _150
REMARK   59  A    between atoms: _153  and  _155
REMARK   60  A    between atoms: _155  and  _156
REMARK   61  A    between atoms: _155  and  _158
REMARK   62  A    between atoms: _158  and  _159
REMARK   63  A    between atoms: _162  and  _164
REMARK   64  A    between atoms: _164  and  _165
REMARK   65  A    between atoms: _164  and  _167
REMARK   66  A    between atoms: _170  and  _172
REMARK   67  A    between atoms: _172  and  _173
REMARK   68  A    between atoms: _172  and  _175
REMARK   69  A    between atoms: _178  and  _180
REMARK   70  A    between atoms: _180  and  _181
REMARK   71  A    between atoms: _184  and  _186
REMARK   72  A    between atoms: _186  and  _187
REMARK   73  A    between atoms: _186  and  _189
REMARK   74  A    between atoms: _189  and  _190
REMARK   75  A    between atoms: _193  and  _195
REMARK   76  A    between atoms: _195  and  _196
REMARK   77  A    between atoms: _195  and  _198
REMARK   78  A    between atoms: _201  and  _203
REMARK   79  A    between atoms: _203  and  _204
REMARK   80  A    between atoms: _203  and  _206
REMARK   81  A    between atoms: _206  and  _207
REMARK   82  A    between atoms: _212  and  _213
REMARK   83  A    between atoms: _215  and  _217
REMARK   84  A    between atoms: _217  and  _218
REMARK   85  A    between atoms: _217  and  _220
REMARK   86  A    between atoms: _220  and  _221
REMARK   87  A    between atoms: _227  and  _229
REMARK   88  A    between atoms: _229  and  _230
REMARK   89  A    between atoms: _229  and  _232
REMARK   90  A    between atoms: _232  and  _233
REMARK   91  A    between atoms: _233  and  _234
REMARK   92  A    between atoms: _236  and  _238
REMARK   93  A    between atoms: _238  and  _239
REMARK   94  A    between atoms: _238  and  _241
REMARK   95  A    between atoms: _241  and  _242
REMARK   96  A    between atoms: _242  and  _243
REMARK   97  A    between atoms: _245  and  _247
REMARK   98  A    between atoms: _247  and  _248
REMARK                            x       y       z     vdW  Elec       q    Type
REMARK                         _______ _______ _______ _____ _____    ______ ____
ROOT
ATOM      1  O   HOH     1      20.754   9.995 -13.343  0.00  0.00    +0.000 OA
ENDROOT
TORSDOF 0
REMARK  Name = ../refined-set-2016/3b7j/3b7j_pocket.pdb
REMARK  98 active torsions:
REMARK  status: ('A' for Active; 'I' for Inactive)
REMARK    1  A    between atoms: _1  and  _3
REMARK    2  A    between atoms: _3  and  _4
REMARK    3  A    between atoms: _3  and  _6
REMARK    4  A    between atoms: _6  and  _7
REMARK    5  A    between atoms: _12  and  _14
REMARK    6  A    between atoms: _14  and  _15
REMARK    7  A    between atoms: _14  and  _17
REMARK    8  A    between atoms: _17  and  _18
REMARK    9  A    between atoms: _24  and  _26
REMARK   10  A    between atoms: _26  and  _27
REMARK   11  A    between atoms: _26  and  _29
REMARK   12  A    between atoms: _29  and  _30
REMARK   13  A    between atoms: _30  and  _31
REMARK   14  A    between atoms: _31  and  _32
REMARK   15  A    between atoms: _32  and  _33
REMARK   16  A    between atoms: _37  and  _39
REMARK   17  A    between atoms: _39  and  _40
REMARK   18  A    between atoms: _39  and  _42
REMARK   19  A    between atoms: _42  and  _43
REMARK   20  A    between atoms: _46  and  _48
REMARK   21  A    between atoms: _48  and  _49
REMARK   22  A    between atoms: _48  and  _51
REMARK   23  A    between atoms: _51  and  _52
REMARK   24  A    between atoms: _59  and  _60
REMARK   25  A    between atoms: _65  and  _67
REMARK   26  A    between atoms: _67  and  _68
REMARK   27  A    between atoms: _70  and  _72
REMARK   28  A    between atoms: _72  and  _73
REMARK   29  A    between atoms: _72  and  _75
REMARK   30  A    between atoms: _78  and  _80
REMARK   31  A    between atoms: _80  and  _81
REMARK   32  A    between atoms: _80  and  _83
REMARK   33  A    between atoms: _83  and  _84
REMARK   34  A    between atoms: _87  and  _89
REMARK   35  A    between atoms: _89  and  _90
REMARK   36  A    between atoms: _89  and  _92
REMARK   37  A    between atoms: _92  and  _93
REMARK   38  A    between atoms: _93  and  _94
REMARK   39  A    between atoms: _94  and  _95
REMARK   40  A    between atoms: _95  and  _96
REMARK   41  A    between atoms: _100  and  _102
REMARK   42  A    between atoms: _102  and  _103
REMARK   43  A    between atoms: _102  and  _105
REMARK   44  A    between atoms: _105  and  _106
REMARK   45  A    between atoms: _112  and  _114
REMARK   46  A    between atoms: _114  and  _115
REMARK   47  A    between atoms: _114  and  _117
REMARK   48  A    between atoms: _117  and  _118
REMARK   49  A    between atoms: _118  and  _119
REMARK   50  A    between atoms: _119  and  _120
REMARK   51  A    between atoms: _129  and  _131
REMARK   52  A    between atoms: _131  and  _132
REMARK   53  A    between atoms: _131  and  _134
REMARK   54  A    between atoms: _134  and  _135
REMARK   55  A    between atoms: _139  and  _140
REMARK   56  A    between atoms: _145  and  _147
REMARK   57  A    between atoms: _147  and  _148
REMARK   58  A    between atoms: _147  and  _150
REMARK   59  A    between atoms: _153  and  _155
REMARK   60  A    between atoms: _155  and  _156
REMARK   61  A    between atoms: _155  and  _158
REMARK   62  A    between atoms: _158  and  _159
REMARK   63  A    between atoms: _162  and  _164
REMARK   64  A    between atoms: _164  and  _165
REMARK   65  A    between atoms: _164  and  _167
REMARK   66  A    between atoms: _170  and  _172
REMARK   67  A    between atoms: _172  and  _173
REMARK   68  A    between atoms: _172  and  _175
REMARK   69  A    between atoms: _178  and  _180
REMARK   70  A    between atoms: _180  and  _181
REMARK   71  A    between atoms: _184  and  _186
REMARK   72  A    between atoms: _186  and  _187
REMARK   73  A    between atoms: _186  and  _189
REMARK   74  A    between atoms: _189  and  _190
REMARK   75  A    between atoms: _193  and  _195
REMARK   76  A    between atoms: _195  and  _196
REMARK   77  A    between atoms: _195  and  _198
REMARK   78  A    between atoms: _201  and  _203
REMARK   79  A    between atoms: _203  and  _204
REMARK   80  A    between atoms: _203  and  _206
REMARK   81  A    between atoms: _206  and  _207
REMARK   82  A    between atoms: _212  and  _213
REMARK   83  A    between atoms: _215  and  _217
REMARK   84  A    between atoms: _217  and  _218
REMARK   85  A    between atoms: _217  and  _220
REMARK   86  A    between atoms: _220  and  _221
REMARK   87  A    between atoms: _227  and  _229
REMARK   88  A    between atoms: _229  and  _230
REMARK   89  A    between atoms: _229  and  _232
REMARK   90  A    between atoms: _232  and  _233
REMARK   91  A    between atoms: _233  and  _234
REMARK   92  A    between atoms: _236  and  _238
REMARK   93  A    between atoms: _238  and  _239
REMARK   94  A    between atoms: _238  and  _241
REMARK   95  A    between atoms: _241  and  _242
REMARK   96  A    between atoms: _242  and  _243
REMARK   97  A    between atoms: _245  and  _247
REMARK   98  A    between atoms: _247  and  _248
REMARK                            x       y       z     vdW  Elec       q    Type
REMARK                         _______ _______ _______ _____ _____    ______ ____
ROOT
ATOM      1  O   HOH     1      20.955  11.033 -20.127  0.00  0.00    +0.000 OA
ENDROOT
TORSDOF 0
REMARK  Name = ../refined-set-2016/3b7j/3b7j_pocket.pdb
REMARK  98 active torsions:
REMARK  status: ('A' for Active; 'I' for Inactive)
REMARK    1  A    between atoms: _1  and  _3
REMARK    2  A    between atoms: _3  and  _4
REMARK    3  A    between atoms: _3  and  _6
REMARK    4  A    between atoms: _6  and  _7
REMARK    5  A    between atoms: _12  and  _14
REMARK    6  A    between atoms: _14  and  _15
REMARK    7  A    between atoms: _14  and  _17
REMARK    8  A    between atoms: _17  and  _18
REMARK    9  A    between atoms: _24  and  _26
REMARK   10  A    between atoms: _26  and  _27
REMARK   11  A    between atoms: _26  and  _29
REMARK   12  A    between atoms: _29  and  _30
REMARK   13  A    between atoms: _30  and  _31
REMARK   14  A    between atoms: _31  and  _32
REMARK   15  A    between atoms: _32  and  _33
REMARK   16  A    between atoms: _37  and  _39
REMARK   17  A    between atoms: _39  and  _40
REMARK   18  A    between atoms: _39  and  _42
REMARK   19  A    between atoms: _42  and  _43
REMARK   20  A    between atoms: _46  and  _48
REMARK   21  A    between atoms: _48  and  _49
REMARK   22  A    between atoms: _48  and  _51
REMARK   23  A    between atoms: _51  and  _52
REMARK   24  A    between atoms: _59  and  _60
REMARK   25  A    between atoms: _65  and  _67
REMARK   26  A    between atoms: _67  and  _68
REMARK   27  A    between atoms: _70  and  _72
REMARK   28  A    between atoms: _72  and  _73
REMARK   29  A    between atoms: _72  and  _75
REMARK   30  A    between atoms: _78  and  _80
REMARK   31  A    between atoms: _80  and  _81
REMARK   32  A    between atoms: _80  and  _83
REMARK   33  A    between atoms: _83  and  _84
REMARK   34  A    between atoms: _87  and  _89
REMARK   35  A    between atoms: _89  and  _90
REMARK   36  A    between atoms: _89  and  _92
REMARK   37  A    between atoms: _92  and  _93
REMARK   38  A    between atoms: _93  and  _94
REMARK   39  A    between atoms: _94  and  _95
REMARK   40  A    between atoms: _95  and  _96
REMARK   41  A    between atoms: _100  and  _102
REMARK   42  A    between atoms: _102  and  _103
REMARK   43  A    between atoms: _102  and  _105
REMARK   44  A    between atoms: _105  and  _106
REMARK   45  A    between atoms: _112  and  _114
REMARK   46  A    between atoms: _114  and  _115
REMARK   47  A    between atoms: _114  and  _117
REMARK   48  A    between atoms: _117  and  _118
REMARK   49  A    between atoms: _118  and  _119
REMARK   50  A    between atoms: _119  and  _120
REMARK   51  A    between atoms: _129  and  _131
REMARK   52  A    between atoms: _131  and  _132
REMARK   53  A    between atoms: _131  and  _134
REMARK   54  A    between atoms: _134  and  _135
REMARK   55  A    between atoms: _139  and  _140
REMARK   56  A    between atoms: _145  and  _147
REMARK   57  A    between atoms: _147  and  _148
REMARK   58  A    between atoms: _147  and  _150
REMARK   59  A    between atoms: _153  and  _155
REMARK   60  A    between atoms: _155  and  _156
REMARK   61  A    between atoms: _155  and  _158
REMARK   62  A    between atoms: _158  and  _159
REMARK   63  A    between atoms: _162  and  _164
REMARK   64  A    between atoms: _164  and  _165
REMARK   65  A    between atoms: _164  and  _167
REMARK   66  A    between atoms: _170  and  _172
REMARK   67  A    between atoms: _172  and  _173
REMARK   68  A    between atoms: _172  and  _175
REMARK   69  A    between atoms: _178  and  _180
REMARK   70  A    between atoms: _180  and  _181
REMARK   71  A    between atoms: _184  and  _186
REMARK   72  A    between atoms: _186  and  _187
REMARK   73  A    between atoms: _186  and  _189
REMARK   74  A    between atoms: _189  and  _190
REMARK   75  A    between atoms: _193  and  _195
REMARK   76  A    between atoms: _195  and  _196
REMARK   77  A    between atoms: _195  and  _198
REMARK   78  A    between atoms: _201  and  _203
REMARK   79  A    between atoms: _203  and  _204
REMARK   80  A    between atoms: _203  and  _206
REMARK   81  A    between atoms: _206  and  _207
REMARK   82  A    between atoms: _212  and  _213
REMARK   83  A    between atoms: _215  and  _217
REMARK   84  A    between atoms: _217  and  _218
REMARK   85  A    between atoms: _217  and  _220
REMARK   86  A    between atoms: _220  and  _221
REMARK   87  A    between atoms: _227  and  _229
REMARK   88  A    between atoms: _229  and  _230
REMARK   89  A    between atoms: _229  and  _232
REMARK   90  A    between atoms: _232  and  _233
REMARK   91  A    between atoms: _233  and  _234
REMARK   92  A    between atoms: _236  and  _238
REMARK   93  A    between atoms: _238  and  _239
REMARK   94  A    between atoms: _238  and  _241
REMARK   95  A    between atoms: _241  and  _242
REMARK   96  A    between atoms: _242  and  _243
REMARK   97  A    between atoms: _245  and  _247
REMARK   98  A    between atoms: _247  and  _248
REMARK                            x       y       z     vdW  Elec       q    Type
REMARK                         _______ _______ _______ _____ _____    ______ ____
ROOT
ATOM      1  O   HOH     1      26.698  14.505  -9.326  0.00  0.00    +0.000 OA
ENDROOT
TORSDOF 0
REMARK  Name = ../refined-set-2016/3b7j/3b7j_pocket.pdb
REMARK  98 active torsions:
REMARK  status: ('A' for Active; 'I' for Inactive)
REMARK    1  A    between atoms: _1  and  _3
REMARK    2  A    between atoms: _3  and  _4
REMARK    3  A    between atoms: _3  and  _6
REMARK    4  A    between atoms: _6  and  _7
REMARK    5  A    between atoms: _12  and  _14
REMARK    6  A    between atoms: _14  and  _15
REMARK    7  A    between atoms: _14  and  _17
REMARK    8  A    between atoms: _17  and  _18
REMARK    9  A    between atoms: _24  and  _26
REMARK   10  A    between atoms: _26  and  _27
REMARK   11  A    between atoms: _26  and  _29
REMARK   12  A    between atoms: _29  and  _30
REMARK   13  A    between atoms: _30  and  _31
REMARK   14  A    between atoms: _31  and  _32
REMARK   15  A    between atoms: _32  and  _33
REMARK   16  A    between atoms: _37  and  _39
REMARK   17  A    between atoms: _39  and  _40
REMARK   18  A    between atoms: _39  and  _42
REMARK   19  A    between atoms: _42  and  _43
REMARK   20  A    between atoms: _46  and  _48
REMARK   21  A    between atoms: _48  and  _49
REMARK   22  A    between atoms: _48  and  _51
REMARK   23  A    between atoms: _51  and  _52
REMARK   24  A    between atoms: _59  and  _60
REMARK   25  A    between atoms: _65  and  _67
REMARK   26  A    between atoms: _67  and  _68
REMARK   27  A    between atoms: _70  and  _72
REMARK   28  A    between atoms: _72  and  _73
REMARK   29  A    between atoms: _72  and  _75
REMARK   30  A    between atoms: _78  and  _80
REMARK   31  A    between atoms: _80  and  _81
REMARK   32  A    between atoms: _80  and  _83
REMARK   33  A    between atoms: _83  and  _84
REMARK   34  A    between atoms: _87  and  _89
REMARK   35  A    between atoms: _89  and  _90
REMARK   36  A    between atoms: _89  and  _92
REMARK   37  A    between atoms: _92  and  _93
REMARK   38  A    between atoms: _93  and  _94
REMARK   39  A    between atoms: _94  and  _95
REMARK   40  A    between atoms: _95  and  _96
REMARK   41  A    between atoms: _100  and  _102
REMARK   42  A    between atoms: _102  and  _103
REMARK   43  A    between atoms: _102  and  _105
REMARK   44  A    between atoms: _105  and  _106
REMARK   45  A    between atoms: _112  and  _114
REMARK   46  A    between atoms: _114  and  _115
REMARK   47  A    between atoms: _114  and  _117
REMARK   48  A    between atoms: _117  and  _118
REMARK   49  A    between atoms: _118  and  _119
REMARK   50  A    between atoms: _119  and  _120
REMARK   51  A    between atoms: _129  and  _131
REMARK   52  A    between atoms: _131  and  _132
REMARK   53  A    between atoms: _131  and  _134
REMARK   54  A    between atoms: _134  and  _135
REMARK   55  A    between atoms: _139  and  _140
REMARK   56  A    between atoms: _145  and  _147
REMARK   57  A    between atoms: _147  and  _148
REMARK   58  A    between atoms: _147  and  _150
REMARK   59  A    between atoms: _153  and  _155
REMARK   60  A    between atoms: _155  and  _156
REMARK   61  A    between atoms: _155  and  _158
REMARK   62  A    between atoms: _158  and  _159
REMARK   63  A    between atoms: _162  and  _164
REMARK   64  A    between atoms: _164  and  _165
REMARK   65  A    between atoms: _164  and  _167
REMARK   66  A    between atoms: _170  and  _172
REMARK   67  A    between atoms: _172  and  _173
REMARK   68  A    between atoms: _172  and  _175
REMARK   69  A    between atoms: _178  and  _180
REMARK   70  A    between atoms: _180  and  _181
REMARK   71  A    between atoms: _184  and  _186
REMARK   72  A    between atoms: _186  and  _187
REMARK   73  A    between atoms: _186  and  _189
REMARK   74  A    between atoms: _189  and  _190
REMARK   75  A    between atoms: _193  and  _195
REMARK   76  A    between atoms: _195  and  _196
REMARK   77  A    between atoms: _195  and  _198
REMARK   78  A    between atoms: _201  and  _203
REMARK   79  A    between atoms: _203  and  _204
REMARK   80  A    between atoms: _203  and  _206
REMARK   81  A    between atoms: _206  and  _207
REMARK   82  A    between atoms: _212  and  _213
REMARK   83  A    between atoms: _215  and  _217
REMARK   84  A    between atoms: _217  and  _218
REMARK   85  A    between atoms: _217  and  _220
REMARK   86  A    between atoms: _220  and  _221
REMARK   87  A    between atoms: _227  and  _229
REMARK   88  A    between atoms: _229  and  _230
REMARK   89  A    between atoms: _229  and  _232
REMARK   90  A    between atoms: _232  and  _233
REMARK   91  A    between atoms: _233  and  _234
REMARK   92  A    between atoms: _236  and  _238
REMARK   93  A    between atoms: _238  and  _239
REMARK   94  A    between atoms: _238  and  _241
REMARK   95  A    between atoms: _241  and  _242
REMARK   96  A    between atoms: _242  and  _243
REMARK   97  A    between atoms: _245  and  _247
REMARK   98  A    between atoms: _247  and  _248
REMARK                            x       y       z     vdW  Elec       q    Type
REMARK                         _______ _______ _______ _____ _____    ______ ____
ROOT
ATOM      1  O   HOH     1      14.365   7.655  -8.303  0.00  0.00    +0.000 OA
ENDROOT
TORSDOF 0
REMARK  Name = ../refined-set-2016/3b7j/3b7j_pocket.pdb
REMARK  98 active torsions:
REMARK  status: ('A' for Active; 'I' for Inactive)
REMARK    1  A    between atoms: _1  and  _3
REMARK    2  A    between atoms: _3  and  _4
REMARK    3  A    between atoms: _3  and  _6
REMARK    4  A    between atoms: _6  and  _7
REMARK    5  A    between atoms: _12  and  _14
REMARK    6  A    between atoms: _14  and  _15
REMARK    7  A    between atoms: _14  and  _17
REMARK    8  A    between atoms: _17  and  _18
REMARK    9  A    between atoms: _24  and  _26
REMARK   10  A    between atoms: _26  and  _27
REMARK   11  A    between atoms: _26  and  _29
REMARK   12  A    between atoms: _29  and  _30
REMARK   13  A    between atoms: _30  and  _31
REMARK   14  A    between atoms: _31  and  _32
REMARK   15  A    between atoms: _32  and  _33
REMARK   16  A    between atoms: _37  and  _39
REMARK   17  A    between atoms: _39  and  _40
REMARK   18  A    between atoms: _39  and  _42
REMARK   19  A    between atoms: _42  and  _43
REMARK   20  A    between atoms: _46  and  _48
REMARK   21  A    between atoms: _48  and  _49
REMARK   22  A    between atoms: _48  and  _51
REMARK   23  A    between atoms: _51  and  _52
REMARK   24  A    between atoms: _59  and  _60
REMARK   25  A    between atoms: _65  and  _67
REMARK   26  A    between atoms: _67  and  _68
REMARK   27  A    between atoms: _70  and  _72
REMARK   28  A    between atoms: _72  and  _73
REMARK   29  A    between atoms: _72  and  _75
REMARK   30  A    between atoms: _78  and  _80
REMARK   31  A    between atoms: _80  and  _81
REMARK   32  A    between atoms: _80  and  _83
REMARK   33  A    between atoms: _83  and  _84
REMARK   34  A    between atoms: _87  and  _89
REMARK   35  A    between atoms: _89  and  _90
REMARK   36  A    between atoms: _89  and  _92
REMARK   37  A    between atoms: _92  and  _93
REMARK   38  A    between atoms: _93  and  _94
REMARK   39  A    between atoms: _94  and  _95
REMARK   40  A    between atoms: _95  and  _96
REMARK   41  A    between atoms: _100  and  _102
REMARK   42  A    between atoms: _102  and  _103
REMARK   43  A    between atoms: _102  and  _105
REMARK   44  A    between atoms: _105  and  _106
REMARK   45  A    between atoms: _112  and  _114
REMARK   46  A    between atoms: _114  and  _115
REMARK   47  A    between atoms: _114  and  _117
REMARK   48  A    between atoms: _117  and  _118
REMARK   49  A    between atoms: _118  and  _119
REMARK   50  A    between atoms: _119  and  _120
REMARK   51  A    between atoms: _129  and  _131
REMARK   52  A    between atoms: _131  and  _132
REMARK   53  A    between atoms: _131  and  _134
REMARK   54  A    between atoms: _134  and  _135
REMARK   55  A    between atoms: _139  and  _140
REMARK   56  A    between atoms: _145  and  _147
REMARK   57  A    between atoms: _147  and  _148
REMARK   58  A    between atoms: _147  and  _150
REMARK   59  A    between atoms: _153  and  _155
REMARK   60  A    between atoms: _155  and  _156
REMARK   61  A    between atoms: _155  and  _158
REMARK   62  A    between atoms: _158  and  _159
REMARK   63  A    between atoms: _162  and  _164
REMARK   64  A    between atoms: _164  and  _165
REMARK   65  A    between atoms: _164  and  _167
REMARK   66  A    between atoms: _170  and  _172
REMARK   67  A    between atoms: _172  and  _173
REMARK   68  A    between atoms: _172  and  _175
REMARK   69  A    between atoms: _178  and  _180
REMARK   70  A    between atoms: _180  and  _181
REMARK   71  A    between atoms: _184  and  _186
REMARK   72  A    between atoms: _186  and  _187
REMARK   73  A    between atoms: _186  and  _189
REMARK   74  A    between atoms: _189  and  _190
REMARK   75  A    between atoms: _193  and  _195
REMARK   76  A    between atoms: _195  and  _196
REMARK   77  A    between atoms: _195  and  _198
REMARK   78  A    between atoms: _201  and  _203
REMARK   79  A    between atoms: _203  and  _204
REMARK   80  A    between atoms: _203  and  _206
REMARK   81  A    between atoms: _206  and  _207
REMARK   82  A    between atoms: _212  and  _213
REMARK   83  A    between atoms: _215  and  _217
REMARK   84  A    between atoms: _217  and  _218
REMARK   85  A    between atoms: _217  and  _220
REMARK   86  A    between atoms: _220  and  _221
REMARK   87  A    between atoms: _227  and  _229
REMARK   88  A    between atoms: _229  and  _230
REMARK   89  A    between atoms: _229  and  _232
REMARK   90  A    between atoms: _232  and  _233
REMARK   91  A    between atoms: _233  and  _234
REMARK   92  A    between atoms: _236  and  _238
REMARK   93  A    between atoms: _238  and  _239
REMARK   94  A    between atoms: _238  and  _241
REMARK   95  A    between atoms: _241  and  _242
REMARK   96  A    between atoms: _242  and  _243
REMARK   97  A    between atoms: _245  and  _247
REMARK   98  A    between atoms: _247  and  _248
REMARK                            x       y       z     vdW  Elec       q    Type
REMARK                         _______ _______ _______ _____ _____    ______ ____
ROOT
ATOM      1  O   HOH     1      11.900  10.756  -7.656  0.00  0.00    +0.000 OA
ENDROOT
TORSDOF 0
REMARK  Name = ../refined-set-2016/3b7j/3b7j_pocket.pdb
REMARK  98 active torsions:
REMARK  status: ('A' for Active; 'I' for Inactive)
REMARK    1  A    between atoms: _1  and  _3
REMARK    2  A    between atoms: _3  and  _4
REMARK    3  A    between atoms: _3  and  _6
REMARK    4  A    between atoms: _6  and  _7
REMARK    5  A    between atoms: _12  and  _14
REMARK    6  A    between atoms: _14  and  _15
REMARK    7  A    between atoms: _14  and  _17
REMARK    8  A    between atoms: _17  and  _18
REMARK    9  A    between atoms: _24  and  _26
REMARK   10  A    between atoms: _26  and  _27
REMARK   11  A    between atoms: _26  and  _29
REMARK   12  A    between atoms: _29  and  _30
REMARK   13  A    between atoms: _30  and  _31
REMARK   14  A    between atoms: _31  and  _32
REMARK   15  A    between atoms: _32  and  _33
REMARK   16  A    between atoms: _37  and  _39
REMARK   17  A    between atoms: _39  and  _40
REMARK   18  A    between atoms: _39  and  _42
REMARK   19  A    between atoms: _42  and  _43
REMARK   20  A    between atoms: _46  and  _48
REMARK   21  A    between atoms: _48  and  _49
REMARK   22  A    between atoms: _48  and  _51
REMARK   23  A    between atoms: _51  and  _52
REMARK   24  A    between atoms: _59  and  _60
REMARK   25  A    between atoms: _65  and  _67
REMARK   26  A    between atoms: _67  and  _68
REMARK   27  A    between atoms: _70  and  _72
REMARK   28  A    between atoms: _72  and  _73
REMARK   29  A    between atoms: _72  and  _75
REMARK   30  A    between atoms: _78  and  _80
REMARK   31  A    between atoms: _80  and  _81
REMARK   32  A    between atoms: _80  and  _83
REMARK   33  A    between atoms: _83  and  _84
REMARK   34  A    between atoms: _87  and  _89
REMARK   35  A    between atoms: _89  and  _90
REMARK   36  A    between atoms: _89  and  _92
REMARK   37  A    between atoms: _92  and  _93
REMARK   38  A    between atoms: _93  and  _94
REMARK   39  A    between atoms: _94  and  _95
REMARK   40  A    between atoms: _95  and  _96
REMARK   41  A    between atoms: _100  and  _102
REMARK   42  A    between atoms: _102  and  _103
REMARK   43  A    between atoms: _102  and  _105
REMARK   44  A    between atoms: _105  and  _106
REMARK   45  A    between atoms: _112  and  _114
REMARK   46  A    between atoms: _114  and  _115
REMARK   47  A    between atoms: _114  and  _117
REMARK   48  A    between atoms: _117  and  _118
REMARK   49  A    between atoms: _118  and  _119
REMARK   50  A    between atoms: _119  and  _120
REMARK   51  A    between atoms: _129  and  _131
REMARK   52  A    between atoms: _131  and  _132
REMARK   53  A    between atoms: _131  and  _134
REMARK   54  A    between atoms: _134  and  _135
REMARK   55  A    between atoms: _139  and  _140
REMARK   56  A    between atoms: _145  and  _147
REMARK   57  A    between atoms: _147  and  _148
REMARK   58  A    between atoms: _147  and  _150
REMARK   59  A    between atoms: _153  and  _155
REMARK   60  A    between atoms: _155  and  _156
REMARK   61  A    between atoms: _155  and  _158
REMARK   62  A    between atoms: _158  and  _159
REMARK   63  A    between atoms: _162  and  _164
REMARK   64  A    between atoms: _164  and  _165
REMARK   65  A    between atoms: _164  and  _167
REMARK   66  A    between atoms: _170  and  _172
REMARK   67  A    between atoms: _172  and  _173
REMARK   68  A    between atoms: _172  and  _175
REMARK   69  A    between atoms: _178  and  _180
REMARK   70  A    between atoms: _180  and  _181
REMARK   71  A    between atoms: _184  and  _186
REMARK   72  A    between atoms: _186  and  _187
REMARK   73  A    between atoms: _186  and  _189
REMARK   74  A    between atoms: _189  and  _190
REMARK   75  A    between atoms: _193  and  _195
REMARK   76  A    between atoms: _195  and  _196
REMARK   77  A    between atoms: _195  and  _198
REMARK   78  A    between atoms: _201  and  _203
REMARK   79  A    between atoms: _203  and  _204
REMARK   80  A    between atoms: _203  and  _206
REMARK   81  A    between atoms: _206  and  _207
REMARK   82  A    between atoms: _212  and  _213
REMARK   83  A    between atoms: _215  and  _217
REMARK   84  A    between atoms: _217  and  _218
REMARK   85  A    between atoms: _217  and  _220
REMARK   86  A    between atoms: _220  and  _221
REMARK   87  A    between atoms: _227  and  _229
REMARK   88  A    between atoms: _229  and  _230
REMARK   89  A    between atoms: _229  and  _232
REMARK   90  A    between atoms: _232  and  _233
REMARK   91  A    between atoms: _233  and  _234
REMARK   92  A    between atoms: _236  and  _238
REMARK   93  A    between atoms: _238  and  _239
REMARK   94  A    between atoms: _238  and  _241
REMARK   95  A    between atoms: _241  and  _242
REMARK   96  A    between atoms: _242  and  _243
REMARK   97  A    between atoms: _245  and  _247
REMARK   98  A    between atoms: _247  and  _248
REMARK                            x       y       z     vdW  Elec       q    Type
REMARK                         _______ _______ _______ _____ _____    ______ ____
ROOT
ATOM      1  O   HOH     1      17.910  11.747  -9.581  0.00  0.00    +0.000 OA
ENDROOT
TORSDOF 0
REMARK  Name = ../refined-set-2016/3b7j/3b7j_pocket.pdb
REMARK  98 active torsions:
REMARK  status: ('A' for Active; 'I' for Inactive)
REMARK    1  A    between atoms: _1  and  _3
REMARK    2  A    between atoms: _3  and  _4
REMARK    3  A    between atoms: _3  and  _6
REMARK    4  A    between atoms: _6  and  _7
REMARK    5  A    between atoms: _12  and  _14
REMARK    6  A    between atoms: _14  and  _15
REMARK    7  A    between atoms: _14  and  _17
REMARK    8  A    between atoms: _17  and  _18
REMARK    9  A    between atoms: _24  and  _26
REMARK   10  A    between atoms: _26  and  _27
REMARK   11  A    between atoms: _26  and  _29
REMARK   12  A    between atoms: _29  and  _30
REMARK   13  A    between atoms: _30  and  _31
REMARK   14  A    between atoms: _31  and  _32
REMARK   15  A    between atoms: _32  and  _33
REMARK   16  A    between atoms: _37  and  _39
REMARK   17  A    between atoms: _39  and  _40
REMARK   18  A    between atoms: _39  and  _42
REMARK   19  A    between atoms: _42  and  _43
REMARK   20  A    between atoms: _46  and  _48
REMARK   21  A    between atoms: _48  and  _49
REMARK   22  A    between atoms: _48  and  _51
REMARK   23  A    between atoms: _51  and  _52
REMARK   24  A    between atoms: _59  and  _60
REMARK   25  A    between atoms: _65  and  _67
REMARK   26  A    between atoms: _67  and  _68
REMARK   27  A    between atoms: _70  and  _72
REMARK   28  A    between atoms: _72  and  _73
REMARK   29  A    between atoms: _72  and  _75
REMARK   30  A    between atoms: _78  and  _80
REMARK   31  A    between atoms: _80  and  _81
REMARK   32  A    between atoms: _80  and  _83
REMARK   33  A    between atoms: _83  and  _84
REMARK   34  A    between atoms: _87  and  _89
REMARK   35  A    between atoms: _89  and  _90
REMARK   36  A    between atoms: _89  and  _92
REMARK   37  A    between atoms: _92  and  _93
REMARK   38  A    between atoms: _93  and  _94
REMARK   39  A    between atoms: _94  and  _95
REMARK   40  A    between atoms: _95  and  _96
REMARK   41  A    between atoms: _100  and  _102
REMARK   42  A    between atoms: _102  and  _103
REMARK   43  A    between atoms: _102  and  _105
REMARK   44  A    between atoms: _105  and  _106
REMARK   45  A    between atoms: _112  and  _114
REMARK   46  A    between atoms: _114  and  _115
REMARK   47  A    between atoms: _114  and  _117
REMARK   48  A    between atoms: _117  and  _118
REMARK   49  A    between atoms: _118  and  _119
REMARK   50  A    between atoms: _119  and  _120
REMARK   51  A    between atoms: _129  and  _131
REMARK   52  A    between atoms: _131  and  _132
REMARK   53  A    between atoms: _131  and  _134
REMARK   54  A    between atoms: _134  and  _135
REMARK   55  A    between atoms: _139  and  _140
REMARK   56  A    between atoms: _145  and  _147
REMARK   57  A    between atoms: _147  and  _148
REMARK   58  A    between atoms: _147  and  _150
REMARK   59  A    between atoms: _153  and  _155
REMARK   60  A    between atoms: _155  and  _156
REMARK   61  A    between atoms: _155  and  _158
REMARK   62  A    between atoms: _158  and  _159
REMARK   63  A    between atoms: _162  and  _164
REMARK   64  A    between atoms: _164  and  _165
REMARK   65  A    between atoms: _164  and  _167
REMARK   66  A    between atoms: _170  and  _172
REMARK   67  A    between atoms: _172  and  _173
REMARK   68  A    between atoms: _172  and  _175
REMARK   69  A    between atoms: _178  and  _180
REMARK   70  A    between atoms: _180  and  _181
REMARK   71  A    between atoms: _184  and  _186
REMARK   72  A    between atoms: _186  and  _187
REMARK   73  A    between atoms: _186  and  _189
REMARK   74  A    between atoms: _189  and  _190
REMARK   75  A    between atoms: _193  and  _195
REMARK   76  A    between atoms: _195  and  _196
REMARK   77  A    between atoms: _195  and  _198
REMARK   78  A    between atoms: _201  and  _203
REMARK   79  A    between atoms: _203  and  _204
REMARK   80  A    between atoms: _203  and  _206
REMARK   81  A    between atoms: _206  and  _207
REMARK   82  A    between atoms: _212  and  _213
REMARK   83  A    between atoms: _215  and  _217
REMARK   84  A    between atoms: _217  and  _218
REMARK   85  A    between atoms: _217  and  _220
REMARK   86  A    between atoms: _220  and  _221
REMARK   87  A    between atoms: _227  and  _229
REMARK   88  A    between atoms: _229  and  _230
REMARK   89  A    between atoms: _229  and  _232
REMARK   90  A    between atoms: _232  and  _233
REMARK   91  A    between atoms: _233  and  _234
REMARK   92  A    between atoms: _236  and  _238
REMARK   93  A    between atoms: _238  and  _239
REMARK   94  A    between atoms: _238  and  _241
REMARK   95  A    between atoms: _241  and  _242
REMARK   96  A    between atoms: _242  and  _243
REMARK   97  A    between atoms: _245  and  _247
REMARK   98  A    between atoms: _247  and  _248
REMARK                            x       y       z     vdW  Elec       q    Type
REMARK                         _______ _______ _______ _____ _____    ______ ____
ROOT
ATOM      1  O   HOH     1      14.707  10.195  -5.784  0.00  0.00    +0.000 OA
ENDROOT
TORSDOF 0
REMARK  Name = ../refined-set-2016/3b7j/3b7j_pocket.pdb
REMARK  98 active torsions:
REMARK  status: ('A' for Active; 'I' for Inactive)
REMARK    1  A    between atoms: _1  and  _3
REMARK    2  A    between atoms: _3  and  _4
REMARK    3  A    between atoms: _3  and  _6
REMARK    4  A    between atoms: _6  and  _7
REMARK    5  A    between atoms: _12  and  _14
REMARK    6  A    between atoms: _14  and  _15
REMARK    7  A    between atoms: _14  and  _17
REMARK    8  A    between atoms: _17  and  _18
REMARK    9  A    between atoms: _24  and  _26
REMARK   10  A    between atoms: _26  and  _27
REMARK   11  A    between atoms: _26  and  _29
REMARK   12  A    between atoms: _29  and  _30
REMARK   13  A    between atoms: _30  and  _31
REMARK   14  A    between atoms: _31  and  _32
REMARK   15  A    between atoms: _32  and  _33
REMARK   16  A    between atoms: _37  and  _39
REMARK   17  A    between atoms: _39  and  _40
REMARK   18  A    between atoms: _39  and  _42
REMARK   19  A    between atoms: _42  and  _43
REMARK   20  A    between atoms: _46  and  _48
REMARK   21  A    between atoms: _48  and  _49
REMARK   22  A    between atoms: _48  and  _51
REMARK   23  A    between atoms: _51  and  _52
REMARK   24  A    between atoms: _59  and  _60
REMARK   25  A    between atoms: _65  and  _67
REMARK   26  A    between atoms: _67  and  _68
REMARK   27  A    between atoms: _70  and  _72
REMARK   28  A    between atoms: _72  and  _73
REMARK   29  A    between atoms: _72  and  _75
REMARK   30  A    between atoms: _78  and  _80
REMARK   31  A    between atoms: _80  and  _81
REMARK   32  A    between atoms: _80  and  _83
REMARK   33  A    between atoms: _83  and  _84
REMARK   34  A    between atoms: _87  and  _89
REMARK   35  A    between atoms: _89  and  _90
REMARK   36  A    between atoms: _89  and  _92
REMARK   37  A    between atoms: _92  and  _93
REMARK   38  A    between atoms: _93  and  _94
REMARK   39  A    between atoms: _94  and  _95
REMARK   40  A    between atoms: _95  and  _96
REMARK   41  A    between atoms: _100  and  _102
REMARK   42  A    between atoms: _102  and  _103
REMARK   43  A    between atoms: _102  and  _105
REMARK   44  A    between atoms: _105  and  _106
REMARK   45  A    between atoms: _112  and  _114
REMARK   46  A    between atoms: _114  and  _115
REMARK   47  A    between atoms: _114  and  _117
REMARK   48  A    between atoms: _117  and  _118
REMARK   49  A    between atoms: _118  and  _119
REMARK   50  A    between atoms: _119  and  _120
REMARK   51  A    between atoms: _129  and  _131
REMARK   52  A    between atoms: _131  and  _132
REMARK   53  A    between atoms: _131  and  _134
REMARK   54  A    between atoms: _134  and  _135
REMARK   55  A    between atoms: _139  and  _140
REMARK   56  A    between atoms: _145  and  _147
REMARK   57  A    between atoms: _147  and  _148
REMARK   58  A    between atoms: _147  and  _150
REMARK   59  A    between atoms: _153  and  _155
REMARK   60  A    between atoms: _155  and  _156
REMARK   61  A    between atoms: _155  and  _158
REMARK   62  A    between atoms: _158  and  _159
REMARK   63  A    between atoms: _162  and  _164
REMARK   64  A    between atoms: _164  and  _165
REMARK   65  A    between atoms: _164  and  _167
REMARK   66  A    between atoms: _170  and  _172
REMARK   67  A    between atoms: _172  and  _173
REMARK   68  A    between atoms: _172  and  _175
REMARK   69  A    between atoms: _178  and  _180
REMARK   70  A    between atoms: _180  and  _181
REMARK   71  A    between atoms: _184  and  _186
REMARK   72  A    between atoms: _186  and  _187
REMARK   73  A    between atoms: _186  and  _189
REMARK   74  A    between atoms: _189  and  _190
REMARK   75  A    between atoms: _193  and  _195
REMARK   76  A    between atoms: _195  and  _196
REMARK   77  A    between atoms: _195  and  _198
REMARK   78  A    between atoms: _201  and  _203
REMARK   79  A    between atoms: _203  and  _204
REMARK   80  A    between atoms: _203  and  _206
REMARK   81  A    between atoms: _206  and  _207
REMARK   82  A    between atoms: _212  and  _213
REMARK   83  A    between atoms: _215  and  _217
REMARK   84  A    between atoms: _217  and  _218
REMARK   85  A    between atoms: _217  and  _220
REMARK   86  A    between atoms: _220  and  _221
REMARK   87  A    between atoms: _227  and  _229
REMARK   88  A    between atoms: _229  and  _230
REMARK   89  A    between atoms: _229  and  _232
REMARK   90  A    between atoms: _232  and  _233
REMARK   91  A    between atoms: _233  and  _234
REMARK   92  A    between atoms: _236  and  _238
REMARK   93  A    between atoms: _238  and  _239
REMARK   94  A    between atoms: _238  and  _241
REMARK   95  A    between atoms: _241  and  _242
REMARK   96  A    between atoms: _242  and  _243
REMARK   97  A    between atoms: _245  and  _247
REMARK   98  A    between atoms: _247  and  _248
REMARK                            x       y       z     vdW  Elec       q    Type
REMARK                         _______ _______ _______ _____ _____    ______ ____
ROOT
ATOM      1  O   HOH     1      12.407  13.880  -7.169  0.00  0.00    +0.000 OA
ENDROOT
TORSDOF 0
REMARK  Name = ../refined-set-2016/3b7j/3b7j_pocket.pdb
REMARK  98 active torsions:
REMARK  status: ('A' for Active; 'I' for Inactive)
REMARK    1  A    between atoms: _1  and  _3
REMARK    2  A    between atoms: _3  and  _4
REMARK    3  A    between atoms: _3  and  _6
REMARK    4  A    between atoms: _6  and  _7
REMARK    5  A    between atoms: _12  and  _14
REMARK    6  A    between atoms: _14  and  _15
REMARK    7  A    between atoms: _14  and  _17
REMARK    8  A    between atoms: _17  and  _18
REMARK    9  A    between atoms: _24  and  _26
REMARK   10  A    between atoms: _26  and  _27
REMARK   11  A    between atoms: _26  and  _29
REMARK   12  A    between atoms: _29  and  _30
REMARK   13  A    between atoms: _30  and  _31
REMARK   14  A    between atoms: _31  and  _32
REMARK   15  A    between atoms: _32  and  _33
REMARK   16  A    between atoms: _37  and  _39
REMARK   17  A    between atoms: _39  and  _40
REMARK   18  A    between atoms: _39  and  _42
REMARK   19  A    between atoms: _42  and  _43
REMARK   20  A    between atoms: _46  and  _48
REMARK   21  A    between atoms: _48  and  _49
REMARK   22  A    between atoms: _48  and  _51
REMARK   23  A    between atoms: _51  and  _52
REMARK   24  A    between atoms: _59  and  _60
REMARK   25  A    between atoms: _65  and  _67
REMARK   26  A    between atoms: _67  and  _68
REMARK   27  A    between atoms: _70  and  _72
REMARK   28  A    between atoms: _72  and  _73
REMARK   29  A    between atoms: _72  and  _75
REMARK   30  A    between atoms: _78  and  _80
REMARK   31  A    between atoms: _80  and  _81
REMARK   32  A    between atoms: _80  and  _83
REMARK   33  A    between atoms: _83  and  _84
REMARK   34  A    between atoms: _87  and  _89
REMARK   35  A    between atoms: _89  and  _90
REMARK   36  A    between atoms: _89  and  _92
REMARK   37  A    between atoms: _92  and  _93
REMARK   38  A    between atoms: _93  and  _94
REMARK   39  A    between atoms: _94  and  _95
REMARK   40  A    between atoms: _95  and  _96
REMARK   41  A    between atoms: _100  and  _102
REMARK   42  A    between atoms: _102  and  _103
REMARK   43  A    between atoms: _102  and  _105
REMARK   44  A    between atoms: _105  and  _106
REMARK   45  A    between atoms: _112  and  _114
REMARK   46  A    between atoms: _114  and  _115
REMARK   47  A    between atoms: _114  and  _117
REMARK   48  A    between atoms: _117  and  _118
REMARK   49  A    between atoms: _118  and  _119
REMARK   50  A    between atoms: _119  and  _120
REMARK   51  A    between atoms: _129  and  _131
REMARK   52  A    between atoms: _131  and  _132
REMARK   53  A    between atoms: _131  and  _134
REMARK   54  A    between atoms: _134  and  _135
REMARK   55  A    between atoms: _139  and  _140
REMARK   56  A    between atoms: _145  and  _147
REMARK   57  A    between atoms: _147  and  _148
REMARK   58  A    between atoms: _147  and  _150
REMARK   59  A    between atoms: _153  and  _155
REMARK   60  A    between atoms: _155  and  _156
REMARK   61  A    between atoms: _155  and  _158
REMARK   62  A    between atoms: _158  and  _159
REMARK   63  A    between atoms: _162  and  _164
REMARK   64  A    between atoms: _164  and  _165
REMARK   65  A    between atoms: _164  and  _167
REMARK   66  A    between atoms: _170  and  _172
REMARK   67  A    between atoms: _172  and  _173
REMARK   68  A    between atoms: _172  and  _175
REMARK   69  A    between atoms: _178  and  _180
REMARK   70  A    between atoms: _180  and  _181
REMARK   71  A    between atoms: _184  and  _186
REMARK   72  A    between atoms: _186  and  _187
REMARK   73  A    between atoms: _186  and  _189
REMARK   74  A    between atoms: _189  and  _190
REMARK   75  A    between atoms: _193  and  _195
REMARK   76  A    between atoms: _195  and  _196
REMARK   77  A    between atoms: _195  and  _198
REMARK   78  A    between atoms: _201  and  _203
REMARK   79  A    between atoms: _203  and  _204
REMARK   80  A    between atoms: _203  and  _206
REMARK   81  A    between atoms: _206  and  _207
REMARK   82  A    between atoms: _212  and  _213
REMARK   83  A    between atoms: _215  and  _217
REMARK   84  A    between atoms: _217  and  _218
REMARK   85  A    between atoms: _217  and  _220
REMARK   86  A    between atoms: _220  and  _221
REMARK   87  A    between atoms: _227  and  _229
REMARK   88  A    between atoms: _229  and  _230
REMARK   89  A    between atoms: _229  and  _232
REMARK   90  A    between atoms: _232  and  _233
REMARK   91  A    between atoms: _233  and  _234
REMARK   92  A    between atoms: _236  and  _238
REMARK   93  A    between atoms: _238  and  _239
REMARK   94  A    between atoms: _238  and  _241
REMARK   95  A    between atoms: _241  and  _242
REMARK   96  A    between atoms: _242  and  _243
REMARK   97  A    between atoms: _245  and  _247
REMARK   98  A    between atoms: _247  and  _248
REMARK                            x       y       z     vdW  Elec       q    Type
REMARK                         _______ _______ _______ _____ _____    ______ ____
ROOT
ATOM      1  O   HOH     1      14.034  15.761 -10.755  0.00  0.00    +0.000 OA
ENDROOT
TORSDOF 0
REMARK  Name = ../refined-set-2016/3b7j/3b7j_pocket.pdb
REMARK  98 active torsions:
REMARK  status: ('A' for Active; 'I' for Inactive)
REMARK    1  A    between atoms: _1  and  _3
REMARK    2  A    between atoms: _3  and  _4
REMARK    3  A    between atoms: _3  and  _6
REMARK    4  A    between atoms: _6  and  _7
REMARK    5  A    between atoms: _12  and  _14
REMARK    6  A    between atoms: _14  and  _15
REMARK    7  A    between atoms: _14  and  _17
REMARK    8  A    between atoms: _17  and  _18
REMARK    9  A    between atoms: _24  and  _26
REMARK   10  A    between atoms: _26  and  _27
REMARK   11  A    between atoms: _26  and  _29
REMARK   12  A    between atoms: _29  and  _30
REMARK   13  A    between atoms: _30  and  _31
REMARK   14  A    between atoms: _31  and  _32
REMARK   15  A    between atoms: _32  and  _33
REMARK   16  A    between atoms: _37  and  _39
REMARK   17  A    between atoms: _39  and  _40
REMARK   18  A    between atoms: _39  and  _42
REMARK   19  A    between atoms: _42  and  _43
REMARK   20  A    between atoms: _46  and  _48
REMARK   21  A    between atoms: _48  and  _49
REMARK   22  A    between atoms: _48  and  _51
REMARK   23  A    between atoms: _51  and  _52
REMARK   24  A    between atoms: _59  and  _60
REMARK   25  A    between atoms: _65  and  _67
REMARK   26  A    between atoms: _67  and  _68
REMARK   27  A    between atoms: _70  and  _72
REMARK   28  A    between atoms: _72  and  _73
REMARK   29  A    between atoms: _72  and  _75
REMARK   30  A    between atoms: _78  and  _80
REMARK   31  A    between atoms: _80  and  _81
REMARK   32  A    between atoms: _80  and  _83
REMARK   33  A    between atoms: _83  and  _84
REMARK   34  A    between atoms: _87  and  _89
REMARK   35  A    between atoms: _89  and  _90
REMARK   36  A    between atoms: _89  and  _92
REMARK   37  A    between atoms: _92  and  _93
REMARK   38  A    between atoms: _93  and  _94
REMARK   39  A    between atoms: _94  and  _95
REMARK   40  A    between atoms: _95  and  _96
REMARK   41  A    between atoms: _100  and  _102
REMARK   42  A    between atoms: _102  and  _103
REMARK   43  A    between atoms: _102  and  _105
REMARK   44  A    between atoms: _105  and  _106
REMARK   45  A    between atoms: _112  and  _114
REMARK   46  A    between atoms: _114  and  _115
REMARK   47  A    between atoms: _114  and  _117
REMARK   48  A    between atoms: _117  and  _118
REMARK   49  A    between atoms: _118  and  _119
REMARK   50  A    between atoms: _119  and  _120
REMARK   51  A    between atoms: _129  and  _131
REMARK   52  A    between atoms: _131  and  _132
REMARK   53  A    between atoms: _131  and  _134
REMARK   54  A    between atoms: _134  and  _135
REMARK   55  A    between atoms: _139  and  _140
REMARK   56  A    between atoms: _145  and  _147
REMARK   57  A    between atoms: _147  and  _148
REMARK   58  A    between atoms: _147  and  _150
REMARK   59  A    between atoms: _153  and  _155
REMARK   60  A    between atoms: _155  and  _156
REMARK   61  A    between atoms: _155  and  _158
REMARK   62  A    between atoms: _158  and  _159
REMARK   63  A    between atoms: _162  and  _164
REMARK   64  A    between atoms: _164  and  _165
REMARK   65  A    between atoms: _164  and  _167
REMARK   66  A    between atoms: _170  and  _172
REMARK   67  A    between atoms: _172  and  _173
REMARK   68  A    between atoms: _172  and  _175
REMARK   69  A    between atoms: _178  and  _180
REMARK   70  A    between atoms: _180  and  _181
REMARK   71  A    between atoms: _184  and  _186
REMARK   72  A    between atoms: _186  and  _187
REMARK   73  A    between atoms: _186  and  _189
REMARK   74  A    between atoms: _189  and  _190
REMARK   75  A    between atoms: _193  and  _195
REMARK   76  A    between atoms: _195  and  _196
REMARK   77  A    between atoms: _195  and  _198
REMARK   78  A    between atoms: _201  and  _203
REMARK   79  A    between atoms: _203  and  _204
REMARK   80  A    between atoms: _203  and  _206
REMARK   81  A    between atoms: _206  and  _207
REMARK   82  A    between atoms: _212  and  _213
REMARK   83  A    between atoms: _215  and  _217
REMARK   84  A    between atoms: _217  and  _218
REMARK   85  A    between atoms: _217  and  _220
REMARK   86  A    between atoms: _220  and  _221
REMARK   87  A    between atoms: _227  and  _229
REMARK   88  A    between atoms: _229  and  _230
REMARK   89  A    between atoms: _229  and  _232
REMARK   90  A    between atoms: _232  and  _233
REMARK   91  A    between atoms: _233  and  _234
REMARK   92  A    between atoms: _236  and  _238
REMARK   93  A    between atoms: _238  and  _239
REMARK   94  A    between atoms: _238  and  _241
REMARK   95  A    between atoms: _241  and  _242
REMARK   96  A    between atoms: _242  and  _243
REMARK   97  A    between atoms: _245  and  _247
REMARK   98  A    between atoms: _247  and  _248
REMARK                            x       y       z     vdW  Elec       q    Type
REMARK                         _______ _______ _______ _____ _____    ______ ____
ROOT
ATOM      1  O   HOH     1      12.953  17.428 -12.102  0.00  0.00    +0.000 OA
ENDROOT
TORSDOF 0
