REMARK  Name = ../refined-set-2016/5ct2/5ct2_pocket.pdb
REMARK  97 active torsions:
REMARK  status: ('A' for Active; 'I' for Inactive)
REMARK    1  A    between atoms: _1  and  _3
REMARK    2  A    between atoms: _3  and  _4
REMARK    3  A    between atoms: _3  and  _6
REMARK    4  A    between atoms: _6  and  _7
REMARK    5  A    between atoms: _17  and  _19
REMARK    6  A    between atoms: _19  and  _20
REMARK    7  A    between atoms: _19  and  _22
REMARK    8  A    between atoms: _22  and  _23
REMARK    9  A    between atoms: _28  and  _30
REMARK   10  A    between atoms: _30  and  _31
REMARK   11  A    between atoms: _30  and  _33
REMARK   12  A    between atoms: _33  and  _34
REMARK   13  A    between atoms: _34  and  _35
REMARK   14  A    between atoms: _38  and  _40
REMARK   15  A    between atoms: _40  and  _41
REMARK   16  A    between atoms: _40  and  _43
REMARK   17  A    between atoms: _43  and  _44
REMARK   18  A    between atoms: _49  and  _51
REMARK   19  A    between atoms: _51  and  _52
REMARK   20  A    between atoms: _51  and  _54
REMARK   21  A    between atoms: _54  and  _55
REMARK   22  A    between atoms: _57  and  _59
REMARK   23  A    between atoms: _59  and  _60
REMARK   24  A    between atoms: _59  and  _62
REMARK   25  A    between atoms: _62  and  _63
REMARK   26  A    between atoms: _69  and  _71
REMARK   27  A    between atoms: _71  and  _72
REMARK   28  A    between atoms: _71  and  _74
REMARK   29  A    between atoms: _74  and  _75
REMARK   30  A    between atoms: _80  and  _81
REMARK   31  A    between atoms: _83  and  _85
REMARK   32  A    between atoms: _85  and  _86
REMARK   33  A    between atoms: _85  and  _88
REMARK   34  A    between atoms: _88  and  _89
REMARK   35  A    between atoms: _89  and  _90
REMARK   36  A    between atoms: _90  and  _91
REMARK   37  A    between atoms: _100  and  _102
REMARK   38  A    between atoms: _102  and  _103
REMARK   39  A    between atoms: _102  and  _105
REMARK   40  A    between atoms: _105  and  _106
REMARK   41  A    between atoms: _112  and  _113
REMARK   42  A    between atoms: _118  and  _120
REMARK   43  A    between atoms: _120  and  _121
REMARK   44  A    between atoms: _120  and  _123
REMARK   45  A    between atoms: _123  and  _124
REMARK   46  A    between atoms: _124  and  _125
REMARK   47  A    between atoms: _125  and  _126
REMARK   48  A    between atoms: _135  and  _137
REMARK   49  A    between atoms: _137  and  _138
REMARK   50  A    between atoms: _140  and  _142
REMARK   51  A    between atoms: _142  and  _143
REMARK   52  A    between atoms: _142  and  _145
REMARK   53  A    between atoms: _145  and  _146
REMARK   54  A    between atoms: _146  and  _147
REMARK   55  A    between atoms: _150  and  _152
REMARK   56  A    between atoms: _152  and  _153
REMARK   57  A    between atoms: _152  and  _155
REMARK   58  A    between atoms: _155  and  _156
REMARK   59  A    between atoms: _156  and  _157
REMARK   60  A    between atoms: _160  and  _162
REMARK   61  A    between atoms: _162  and  _163
REMARK   62  A    between atoms: _165  and  _167
REMARK   63  A    between atoms: _167  and  _168
REMARK   64  A    between atoms: _171  and  _172
REMARK   65  A    between atoms: _177  and  _179
REMARK   66  A    between atoms: _179  and  _180
REMARK   67  A    between atoms: _179  and  _182
REMARK   68  A    between atoms: _182  and  _183
REMARK   69  A    between atoms: _193  and  _195
REMARK   70  A    between atoms: _195  and  _196
REMARK   71  A    between atoms: _195  and  _198
REMARK   72  A    between atoms: _200  and  _202
REMARK   73  A    between atoms: _202  and  _203
REMARK   74  A    between atoms: _202  and  _205
REMARK   75  A    between atoms: _205  and  _206
REMARK   76  A    between atoms: _212  and  _214
REMARK   77  A    between atoms: _214  and  _215
REMARK   78  A    between atoms: _214  and  _217
REMARK   79  A    between atoms: _217  and  _218
REMARK   80  A    between atoms: _218  and  _219
REMARK   81  A    between atoms: _219  and  _220
REMARK   82  A    between atoms: _229  and  _231
REMARK   83  A    between atoms: _231  and  _232
REMARK   84  A    between atoms: _231  and  _234
REMARK   85  A    between atoms: _234  and  _235
REMARK   86  A    between atoms: _240  and  _241
REMARK   87  A    between atoms: _243  and  _245
REMARK   88  A    between atoms: _245  and  _246
REMARK   89  A    between atoms: _245  and  _248
REMARK   90  A    between atoms: _248  and  _249
REMARK   91  A    between atoms: _249  and  _250
REMARK   92  A    between atoms: _253  and  _255
REMARK   93  A    between atoms: _255  and  _256
REMARK   94  A    between atoms: _255  and  _258
REMARK   95  A    between atoms: _261  and  _263
REMARK   96  A    between atoms: _263  and  _264
REMARK   97  A    between atoms: _263  and  _266
REMARK                            x       y       z     vdW  Elec       q    Type
REMARK                         _______ _______ _______ _____ _____    ______ ____
ROOT
ATOM      1  CG  TRP A   1      21.430  25.034  26.420  0.00  0.00    -0.002 A 
ATOM      2  CD2 TRP A   1      20.676  23.913  26.890  0.00  0.00    +0.013 A 
ATOM      3  CE3 TRP A   1      20.941  22.867  27.786  0.00  0.00    +0.001 A 
ATOM      4  CZ3 TRP A   1      19.947  21.900  28.008  0.00  0.00    +0.000 A 
ATOM      5  CH2 TRP A   1      18.708  21.969  27.345  0.00  0.00    +0.001 A 
ATOM      6  CZ2 TRP A   1      18.422  22.989  26.471  0.00  0.00    +0.017 A 
ATOM      7  CE2 TRP A   1      19.416  23.953  26.242  0.00  0.00    +0.056 A 
ATOM      8  NE1 TRP A   1      19.403  25.062  25.434  0.00  0.00    -0.352 N 
ATOM      9  HE1 TRP A   1      18.607  25.365  24.837  0.00  0.00    +0.166 HD
ATOM     10  CD1 TRP A   1      20.612  25.709  25.541  0.00  0.00    +0.068 A 
ENDROOT
BRANCH   1  11
ATOM     11  CB  TRP A   1      22.808  25.433  26.856  0.00  0.00    +0.053 C 
BRANCH  11  12
ATOM     12  CA  TRP A   1      22.753  26.291  28.132  0.00  0.00    +0.137 C 
BRANCH  12  13
ATOM     13  N   TRP A   1      21.939  27.503  27.925  0.00  0.00    -0.239 NA
ATOM     14  H   TRP A   1      21.486  27.655  27.001  0.00  0.00    +0.142 HD
ENDBRANCH  12  13
BRANCH  12  15
ATOM     15  C   TRP A   1      24.165  26.620  28.661  0.00  0.00    +0.224 C 
ATOM     16  O   TRP A   1      24.722  25.866  29.461  0.00  0.00    -0.287 OA
ENDBRANCH  12  15
ENDBRANCH  11  12
ENDBRANCH   1  11
TORSDOF 4
REMARK  Name = ../refined-set-2016/5ct2/5ct2_pocket.pdb
REMARK  97 active torsions:
REMARK  status: ('A' for Active; 'I' for Inactive)
REMARK    1  A    between atoms: _1  and  _3
REMARK    2  A    between atoms: _3  and  _4
REMARK    3  A    between atoms: _3  and  _6
REMARK    4  A    between atoms: _6  and  _7
REMARK    5  A    between atoms: _17  and  _19
REMARK    6  A    between atoms: _19  and  _20
REMARK    7  A    between atoms: _19  and  _22
REMARK    8  A    between atoms: _22  and  _23
REMARK    9  A    between atoms: _28  and  _30
REMARK   10  A    between atoms: _30  and  _31
REMARK   11  A    between atoms: _30  and  _33
REMARK   12  A    between atoms: _33  and  _34
REMARK   13  A    between atoms: _34  and  _35
REMARK   14  A    between atoms: _38  and  _40
REMARK   15  A    between atoms: _40  and  _41
REMARK   16  A    between atoms: _40  and  _43
REMARK   17  A    between atoms: _43  and  _44
REMARK   18  A    between atoms: _49  and  _51
REMARK   19  A    between atoms: _51  and  _52
REMARK   20  A    between atoms: _51  and  _54
REMARK   21  A    between atoms: _54  and  _55
REMARK   22  A    between atoms: _57  and  _59
REMARK   23  A    between atoms: _59  and  _60
REMARK   24  A    between atoms: _59  and  _62
REMARK   25  A    between atoms: _62  and  _63
REMARK   26  A    between atoms: _69  and  _71
REMARK   27  A    between atoms: _71  and  _72
REMARK   28  A    between atoms: _71  and  _74
REMARK   29  A    between atoms: _74  and  _75
REMARK   30  A    between atoms: _80  and  _81
REMARK   31  A    between atoms: _83  and  _85
REMARK   32  A    between atoms: _85  and  _86
REMARK   33  A    between atoms: _85  and  _88
REMARK   34  A    between atoms: _88  and  _89
REMARK   35  A    between atoms: _89  and  _90
REMARK   36  A    between atoms: _90  and  _91
REMARK   37  A    between atoms: _100  and  _102
REMARK   38  A    between atoms: _102  and  _103
REMARK   39  A    between atoms: _102  and  _105
REMARK   40  A    between atoms: _105  and  _106
REMARK   41  A    between atoms: _112  and  _113
REMARK   42  A    between atoms: _118  and  _120
REMARK   43  A    between atoms: _120  and  _121
REMARK   44  A    between atoms: _120  and  _123
REMARK   45  A    between atoms: _123  and  _124
REMARK   46  A    between atoms: _124  and  _125
REMARK   47  A    between atoms: _125  and  _126
REMARK   48  A    between atoms: _135  and  _137
REMARK   49  A    between atoms: _137  and  _138
REMARK   50  A    between atoms: _140  and  _142
REMARK   51  A    between atoms: _142  and  _143
REMARK   52  A    between atoms: _142  and  _145
REMARK   53  A    between atoms: _145  and  _146
REMARK   54  A    between atoms: _146  and  _147
REMARK   55  A    between atoms: _150  and  _152
REMARK   56  A    between atoms: _152  and  _153
REMARK   57  A    between atoms: _152  and  _155
REMARK   58  A    between atoms: _155  and  _156
REMARK   59  A    between atoms: _156  and  _157
REMARK   60  A    between atoms: _160  and  _162
REMARK   61  A    between atoms: _162  and  _163
REMARK   62  A    between atoms: _165  and  _167
REMARK   63  A    between atoms: _167  and  _168
REMARK   64  A    between atoms: _171  and  _172
REMARK   65  A    between atoms: _177  and  _179
REMARK   66  A    between atoms: _179  and  _180
REMARK   67  A    between atoms: _179  and  _182
REMARK   68  A    between atoms: _182  and  _183
REMARK   69  A    between atoms: _193  and  _195
REMARK   70  A    between atoms: _195  and  _196
REMARK   71  A    between atoms: _195  and  _198
REMARK   72  A    between atoms: _200  and  _202
REMARK   73  A    between atoms: _202  and  _203
REMARK   74  A    between atoms: _202  and  _205
REMARK   75  A    between atoms: _205  and  _206
REMARK   76  A    between atoms: _212  and  _214
REMARK   77  A    between atoms: _214  and  _215
REMARK   78  A    between atoms: _214  and  _217
REMARK   79  A    between atoms: _217  and  _218
REMARK   80  A    between atoms: _218  and  _219
REMARK   81  A    between atoms: _219  and  _220
REMARK   82  A    between atoms: _229  and  _231
REMARK   83  A    between atoms: _231  and  _232
REMARK   84  A    between atoms: _231  and  _234
REMARK   85  A    between atoms: _234  and  _235
REMARK   86  A    between atoms: _240  and  _241
REMARK   87  A    between atoms: _243  and  _245
REMARK   88  A    between atoms: _245  and  _246
REMARK   89  A    between atoms: _245  and  _248
REMARK   90  A    between atoms: _248  and  _249
REMARK   91  A    between atoms: _249  and  _250
REMARK   92  A    between atoms: _253  and  _255
REMARK   93  A    between atoms: _255  and  _256
REMARK   94  A    between atoms: _255  and  _258
REMARK   95  A    between atoms: _261  and  _263
REMARK   96  A    between atoms: _263  and  _264
REMARK   97  A    between atoms: _263  and  _266
REMARK                            x       y       z     vdW  Elec       q    Type
REMARK                         _______ _______ _______ _____ _____    ______ ____
ROOT
ATOM      1  CA  HIS A   3      24.324  21.143  35.044  0.00  0.00    +0.155 C 
ENDROOT
BRANCH   1   4
ATOM      2  C   GLU A   2      23.963  22.703  36.887  0.00  0.00    +0.241 C 
ATOM      3  O   GLU A   2      23.022  22.051  37.347  0.00  0.00    -0.273 OA
ATOM      4  N   HIS A   3      24.699  22.295  35.861  0.00  0.00    -0.297 N 
ATOM      5  H   HIS A   3      25.571  22.812  35.631  0.00  0.00    +0.150 HD
BRANCH   2   6
ATOM      6  CA  GLU A   2      24.356  24.045  37.492  0.00  0.00    +0.149 C 
BRANCH   6   8
ATOM      7  C   HIS A   1      22.460  25.510  37.133  0.00  0.00    +0.239 C 
ATOM      8  N   GLU A   2      23.173  24.750  37.952  0.00  0.00    -0.297 N 
ATOM      9  H   GLU A   2      22.879  24.657  38.945  0.00  0.00    +0.150 HD
ATOM     10  O   HIS A   1      22.841  25.819  36.000  0.00  0.00    -0.274 OA
BRANCH   7  11
ATOM     11  CA  HIS A   1      21.138  26.014  37.703  0.00  0.00    +0.151 C 
BRANCH  11  12
ATOM     12  N   HIS A   1      20.971  27.461  37.642  0.00  0.00    -0.238 NA
ATOM     13  H   HIS A   1      21.074  27.961  36.736  0.00  0.00    +0.142 HD
ENDBRANCH  11  12
BRANCH  11  14
ATOM     14  CB  HIS A   1      19.933  25.310  37.081  0.00  0.00    +0.074 C 
BRANCH  14  15
ATOM     15  CG  HIS A   1      18.631  25.822  37.597  0.00  0.00    +0.082 A 
ATOM     16  CD2 HIS A   1      17.994  25.606  38.771  0.00  0.00    +0.115 A 
ATOM     17  NE2 HIS A   1      16.841  26.355  38.750  0.00  0.00    -0.221 NA
ATOM     18  CE1 HIS A   1      16.781  27.021  37.612  0.00  0.00    +0.199 A 
ATOM     19  ND1 HIS A   1      17.859  26.731  36.904  0.00  0.00    -0.227 NA
ENDBRANCH  14  15
ENDBRANCH  11  14
ENDBRANCH   7  11
ENDBRANCH   6   8
BRANCH   6  20
ATOM     20  CB  GLU A   2      25.375  23.883  38.628  0.00  0.00    +0.041 C 
BRANCH  20  21
ATOM     21  CG  GLU A   2      24.794  24.004  40.032  0.00  0.00    +0.116 C 
BRANCH  21  22
ATOM     22  CD  GLU A   2      25.656  24.873  40.941  0.00  0.00    +0.365 C 
ATOM     23  OE2 GLU A   2      26.245  24.329  41.905  0.00  0.00    -0.246 OA
ATOM     24  OE1 GLU A   2      25.752  26.097  40.679  0.00  0.00    -0.246 OA
ENDBRANCH  21  22
ENDBRANCH  20  21
ENDBRANCH   6  20
ENDBRANCH   2   6
ENDBRANCH   1   4
BRANCH   1  25
ATOM     25  C   HIS A   3      25.481  20.638  34.186  0.00  0.00    +0.241 C 
ATOM     26  O   HIS A   3      26.522  21.299  34.081  0.00  0.00    -0.273 OA
ATOM     27  N   SER A   4      25.265  19.485  33.548  0.00  0.00    -0.295 N 
ATOM     28  H   SER A   4      24.331  19.039  33.648  0.00  0.00    +0.150 HD
BRANCH  27  29
ATOM     29  CA  SER A   4      26.269  18.807  32.711  0.00  0.00    +0.178 C 
BRANCH  29  30
ATOM     30  C   SER A   4      25.862  18.699  31.223  0.00  0.00    +0.243 C 
ATOM     31  N   PHE A   5      25.213  19.746  30.722  0.00  0.00    -0.298 N 
ATOM     32  H   PHE A   5      25.011  20.547  31.354  0.00  0.00    +0.150 HD
ATOM     33  O   SER A   4      26.121  17.682  30.560  0.00  0.00    -0.273 OA
BRANCH  31  34
ATOM     34  CA  PHE A   5      24.767  19.834  29.331  0.00  0.00    +0.141 C 
BRANCH  34  35
ATOM     35  C   PHE A   5      25.423  21.053  28.703  0.00  0.00    +0.227 C 
ATOM     36  O   PHE A   5      24.728  21.973  28.240  0.00  0.00    -0.286 OA
ENDBRANCH  34  35
BRANCH  34  37
ATOM     37  CB  PHE A   5      23.234  20.001  29.251  0.00  0.00    +0.054 C 
BRANCH  37  38
ATOM     38  CG  PHE A   5      22.450  18.737  29.513  0.00  0.00    -0.020 A 
ATOM     39  CD2 PHE A   5      21.971  18.447  30.787  0.00  0.00    -0.004 A 
ATOM     40  CE2 PHE A   5      21.231  17.273  31.033  0.00  0.00    -0.000 A 
ATOM     41  CZ  PHE A   5      20.955  16.401  29.993  0.00  0.00    -0.000 A 
ATOM     42  CE1 PHE A   5      21.426  16.689  28.710  0.00  0.00    -0.000 A 
ATOM     43  CD1 PHE A   5      22.162  17.856  28.479  0.00  0.00    -0.004 A 
ENDBRANCH  37  38
ENDBRANCH  34  37
ENDBRANCH  31  34
ENDBRANCH  29  30
BRANCH  29  44
ATOM     44  CB  SER A   4      26.531  17.409  33.268  0.00  0.00    +0.166 C 
BRANCH  44  45
ATOM     45  OG  SER A   4      25.372  16.591  33.134  0.00  0.00    -0.380 OA
ATOM     46  H   SER A   4      25.132  16.516  32.177  0.00  0.00    +0.211 HD
ENDBRANCH  44  45
ENDBRANCH  29  44
ENDBRANCH  27  29
ENDBRANCH   1  25
BRANCH   1  47
ATOM     47  CB  HIS A   3      23.130  21.512  34.138  0.00  0.00    +0.076 C 
BRANCH  47  48
ATOM     48  CG  HIS A   3      23.469  22.482  33.047  0.00  0.00    +0.082 A 
ATOM     49  ND1 HIS A   3      23.275  23.844  33.168  0.00  0.00    -0.227 NA
ATOM     50  CE1 HIS A   3      23.662  24.443  32.056  0.00  0.00    +0.199 A 
ATOM     51  NE2 HIS A   3      24.099  23.518  31.219  0.00  0.00    -0.221 NA
ATOM     52  CD2 HIS A   3      23.993  22.286  31.817  0.00  0.00    +0.115 A 
ENDBRANCH  47  48
ENDBRANCH   1  47
TORSDOF 21
REMARK  Name = ../refined-set-2016/5ct2/5ct2_pocket.pdb
REMARK  97 active torsions:
REMARK  status: ('A' for Active; 'I' for Inactive)
REMARK    1  A    between atoms: _1  and  _3
REMARK    2  A    between atoms: _3  and  _4
REMARK    3  A    between atoms: _3  and  _6
REMARK    4  A    between atoms: _6  and  _7
REMARK    5  A    between atoms: _17  and  _19
REMARK    6  A    between atoms: _19  and  _20
REMARK    7  A    between atoms: _19  and  _22
REMARK    8  A    between atoms: _22  and  _23
REMARK    9  A    between atoms: _28  and  _30
REMARK   10  A    between atoms: _30  and  _31
REMARK   11  A    between atoms: _30  and  _33
REMARK   12  A    between atoms: _33  and  _34
REMARK   13  A    between atoms: _34  and  _35
REMARK   14  A    between atoms: _38  and  _40
REMARK   15  A    between atoms: _40  and  _41
REMARK   16  A    between atoms: _40  and  _43
REMARK   17  A    between atoms: _43  and  _44
REMARK   18  A    between atoms: _49  and  _51
REMARK   19  A    between atoms: _51  and  _52
REMARK   20  A    between atoms: _51  and  _54
REMARK   21  A    between atoms: _54  and  _55
REMARK   22  A    between atoms: _57  and  _59
REMARK   23  A    between atoms: _59  and  _60
REMARK   24  A    between atoms: _59  and  _62
REMARK   25  A    between atoms: _62  and  _63
REMARK   26  A    between atoms: _69  and  _71
REMARK   27  A    between atoms: _71  and  _72
REMARK   28  A    between atoms: _71  and  _74
REMARK   29  A    between atoms: _74  and  _75
REMARK   30  A    between atoms: _80  and  _81
REMARK   31  A    between atoms: _83  and  _85
REMARK   32  A    between atoms: _85  and  _86
REMARK   33  A    between atoms: _85  and  _88
REMARK   34  A    between atoms: _88  and  _89
REMARK   35  A    between atoms: _89  and  _90
REMARK   36  A    between atoms: _90  and  _91
REMARK   37  A    between atoms: _100  and  _102
REMARK   38  A    between atoms: _102  and  _103
REMARK   39  A    between atoms: _102  and  _105
REMARK   40  A    between atoms: _105  and  _106
REMARK   41  A    between atoms: _112  and  _113
REMARK   42  A    between atoms: _118  and  _120
REMARK   43  A    between atoms: _120  and  _121
REMARK   44  A    between atoms: _120  and  _123
REMARK   45  A    between atoms: _123  and  _124
REMARK   46  A    between atoms: _124  and  _125
REMARK   47  A    between atoms: _125  and  _126
REMARK   48  A    between atoms: _135  and  _137
REMARK   49  A    between atoms: _137  and  _138
REMARK   50  A    between atoms: _140  and  _142
REMARK   51  A    between atoms: _142  and  _143
REMARK   52  A    between atoms: _142  and  _145
REMARK   53  A    between atoms: _145  and  _146
REMARK   54  A    between atoms: _146  and  _147
REMARK   55  A    between atoms: _150  and  _152
REMARK   56  A    between atoms: _152  and  _153
REMARK   57  A    between atoms: _152  and  _155
REMARK   58  A    between atoms: _155  and  _156
REMARK   59  A    between atoms: _156  and  _157
REMARK   60  A    between atoms: _160  and  _162
REMARK   61  A    between atoms: _162  and  _163
REMARK   62  A    between atoms: _165  and  _167
REMARK   63  A    between atoms: _167  and  _168
REMARK   64  A    between atoms: _171  and  _172
REMARK   65  A    between atoms: _177  and  _179
REMARK   66  A    between atoms: _179  and  _180
REMARK   67  A    between atoms: _179  and  _182
REMARK   68  A    between atoms: _182  and  _183
REMARK   69  A    between atoms: _193  and  _195
REMARK   70  A    between atoms: _195  and  _196
REMARK   71  A    between atoms: _195  and  _198
REMARK   72  A    between atoms: _200  and  _202
REMARK   73  A    between atoms: _202  and  _203
REMARK   74  A    between atoms: _202  and  _205
REMARK   75  A    between atoms: _205  and  _206
REMARK   76  A    between atoms: _212  and  _214
REMARK   77  A    between atoms: _214  and  _215
REMARK   78  A    between atoms: _214  and  _217
REMARK   79  A    between atoms: _217  and  _218
REMARK   80  A    between atoms: _218  and  _219
REMARK   81  A    between atoms: _219  and  _220
REMARK   82  A    between atoms: _229  and  _231
REMARK   83  A    between atoms: _231  and  _232
REMARK   84  A    between atoms: _231  and  _234
REMARK   85  A    between atoms: _234  and  _235
REMARK   86  A    between atoms: _240  and  _241
REMARK   87  A    between atoms: _243  and  _245
REMARK   88  A    between atoms: _245  and  _246
REMARK   89  A    between atoms: _245  and  _248
REMARK   90  A    between atoms: _248  and  _249
REMARK   91  A    between atoms: _249  and  _250
REMARK   92  A    between atoms: _253  and  _255
REMARK   93  A    between atoms: _255  and  _256
REMARK   94  A    between atoms: _255  and  _258
REMARK   95  A    between atoms: _261  and  _263
REMARK   96  A    between atoms: _263  and  _264
REMARK   97  A    between atoms: _263  and  _266
REMARK                            x       y       z     vdW  Elec       q    Type
REMARK                         _______ _______ _______ _____ _____    ______ ____
ROOT
ATOM      1  CG  TYR A   1      24.963  16.986  24.692  0.00  0.00    -0.020 A 
ATOM      2  CD2 TYR A   1      25.240  17.522  25.948  0.00  0.00    -0.001 A 
ATOM      3  CE2 TYR A   1      24.987  16.800  27.107  0.00  0.00    +0.036 A 
ATOM      4  CZ  TYR A   1      24.443  15.526  27.008  0.00  0.00    +0.134 A 
ATOM      5  CE1 TYR A   1      24.169  14.971  25.765  0.00  0.00    +0.036 A 
ATOM      6  CD1 TYR A   1      24.430  15.702  24.619  0.00  0.00    -0.001 A 
ENDROOT
BRANCH   4   7
ATOM      7  OH  TYR A   1      24.183  14.795  28.150  0.00  0.00    -0.506 OA
ATOM      8  HH  TYR A   1      24.432  15.329  28.946  0.00  0.00    +0.292 HD
ENDBRANCH   4   7
BRANCH   1   9
ATOM      9  CB  TYR A   1      25.248  17.773  23.437  0.00  0.00    +0.051 C 
BRANCH   9  10
ATOM     10  CA  TYR A   1      26.577  17.408  22.775  0.00  0.00    +0.137 C 
BRANCH  10  11
ATOM     11  N   TYR A   1      27.704  17.709  23.655  0.00  0.00    -0.239 NA
ATOM     12  H   TYR A   1      27.775  18.656  24.079  0.00  0.00    +0.142 HD
ENDBRANCH  10  11
BRANCH  10  13
ATOM     13  C   TYR A   1      26.742  18.135  21.451  0.00  0.00    +0.224 C 
ATOM     14  O   TYR A   1      25.979  19.044  21.106  0.00  0.00    -0.287 OA
ENDBRANCH  10  13
ENDBRANCH   9  10
ENDBRANCH   1   9
TORSDOF 5
REMARK  Name = ../refined-set-2016/5ct2/5ct2_pocket.pdb
REMARK  97 active torsions:
REMARK  status: ('A' for Active; 'I' for Inactive)
REMARK    1  A    between atoms: _1  and  _3
REMARK    2  A    between atoms: _3  and  _4
REMARK    3  A    between atoms: _3  and  _6
REMARK    4  A    between atoms: _6  and  _7
REMARK    5  A    between atoms: _17  and  _19
REMARK    6  A    between atoms: _19  and  _20
REMARK    7  A    between atoms: _19  and  _22
REMARK    8  A    between atoms: _22  and  _23
REMARK    9  A    between atoms: _28  and  _30
REMARK   10  A    between atoms: _30  and  _31
REMARK   11  A    between atoms: _30  and  _33
REMARK   12  A    between atoms: _33  and  _34
REMARK   13  A    between atoms: _34  and  _35
REMARK   14  A    between atoms: _38  and  _40
REMARK   15  A    between atoms: _40  and  _41
REMARK   16  A    between atoms: _40  and  _43
REMARK   17  A    between atoms: _43  and  _44
REMARK   18  A    between atoms: _49  and  _51
REMARK   19  A    between atoms: _51  and  _52
REMARK   20  A    between atoms: _51  and  _54
REMARK   21  A    between atoms: _54  and  _55
REMARK   22  A    between atoms: _57  and  _59
REMARK   23  A    between atoms: _59  and  _60
REMARK   24  A    between atoms: _59  and  _62
REMARK   25  A    between atoms: _62  and  _63
REMARK   26  A    between atoms: _69  and  _71
REMARK   27  A    between atoms: _71  and  _72
REMARK   28  A    between atoms: _71  and  _74
REMARK   29  A    between atoms: _74  and  _75
REMARK   30  A    between atoms: _80  and  _81
REMARK   31  A    between atoms: _83  and  _85
REMARK   32  A    between atoms: _85  and  _86
REMARK   33  A    between atoms: _85  and  _88
REMARK   34  A    between atoms: _88  and  _89
REMARK   35  A    between atoms: _89  and  _90
REMARK   36  A    between atoms: _90  and  _91
REMARK   37  A    between atoms: _100  and  _102
REMARK   38  A    between atoms: _102  and  _103
REMARK   39  A    between atoms: _102  and  _105
REMARK   40  A    between atoms: _105  and  _106
REMARK   41  A    between atoms: _112  and  _113
REMARK   42  A    between atoms: _118  and  _120
REMARK   43  A    between atoms: _120  and  _121
REMARK   44  A    between atoms: _120  and  _123
REMARK   45  A    between atoms: _123  and  _124
REMARK   46  A    between atoms: _124  and  _125
REMARK   47  A    between atoms: _125  and  _126
REMARK   48  A    between atoms: _135  and  _137
REMARK   49  A    between atoms: _137  and  _138
REMARK   50  A    between atoms: _140  and  _142
REMARK   51  A    between atoms: _142  and  _143
REMARK   52  A    between atoms: _142  and  _145
REMARK   53  A    between atoms: _145  and  _146
REMARK   54  A    between atoms: _146  and  _147
REMARK   55  A    between atoms: _150  and  _152
REMARK   56  A    between atoms: _152  and  _153
REMARK   57  A    between atoms: _152  and  _155
REMARK   58  A    between atoms: _155  and  _156
REMARK   59  A    between atoms: _156  and  _157
REMARK   60  A    between atoms: _160  and  _162
REMARK   61  A    between atoms: _162  and  _163
REMARK   62  A    between atoms: _165  and  _167
REMARK   63  A    between atoms: _167  and  _168
REMARK   64  A    between atoms: _171  and  _172
REMARK   65  A    between atoms: _177  and  _179
REMARK   66  A    between atoms: _179  and  _180
REMARK   67  A    between atoms: _179  and  _182
REMARK   68  A    between atoms: _182  and  _183
REMARK   69  A    between atoms: _193  and  _195
REMARK   70  A    between atoms: _195  and  _196
REMARK   71  A    between atoms: _195  and  _198
REMARK   72  A    between atoms: _200  and  _202
REMARK   73  A    between atoms: _202  and  _203
REMARK   74  A    between atoms: _202  and  _205
REMARK   75  A    between atoms: _205  and  _206
REMARK   76  A    between atoms: _212  and  _214
REMARK   77  A    between atoms: _214  and  _215
REMARK   78  A    between atoms: _214  and  _217
REMARK   79  A    between atoms: _217  and  _218
REMARK   80  A    between atoms: _218  and  _219
REMARK   81  A    between atoms: _219  and  _220
REMARK   82  A    between atoms: _229  and  _231
REMARK   83  A    between atoms: _231  and  _232
REMARK   84  A    between atoms: _231  and  _234
REMARK   85  A    between atoms: _234  and  _235
REMARK   86  A    between atoms: _240  and  _241
REMARK   87  A    between atoms: _243  and  _245
REMARK   88  A    between atoms: _245  and  _246
REMARK   89  A    between atoms: _245  and  _248
REMARK   90  A    between atoms: _248  and  _249
REMARK   91  A    between atoms: _249  and  _250
REMARK   92  A    between atoms: _253  and  _255
REMARK   93  A    between atoms: _255  and  _256
REMARK   94  A    between atoms: _255  and  _258
REMARK   95  A    between atoms: _261  and  _263
REMARK   96  A    between atoms: _263  and  _264
REMARK   97  A    between atoms: _263  and  _266
REMARK                            x       y       z     vdW  Elec       q    Type
REMARK                         _______ _______ _______ _____ _____    ______ ____
ROOT
ATOM      1  CA  GLU A   6      14.470  11.337  25.059  0.00  0.00    +0.149 C 
ENDROOT
BRANCH   1   2
ATOM      2  C   GLU A   6      12.967  11.627  25.089  0.00  0.00    +0.241 C 
ATOM      3  N   GLU A   7      12.207  10.650  25.586  0.00  0.00    -0.297 N 
ATOM      4  H   GLU A   7      12.650   9.725  25.756  0.00  0.00    +0.150 HD
ATOM      5  O   GLU A   6      12.511  12.698  24.670  0.00  0.00    -0.273 OA
BRANCH   3   6
ATOM      6  CA  GLU A   7      10.790  10.801  25.906  0.00  0.00    +0.149 C 
BRANCH   6   7
ATOM      7  C   GLU A   7      10.538  12.099  26.646  0.00  0.00    +0.241 C 
ATOM      8  O   GLU A   7      11.229  12.408  27.625  0.00  0.00    -0.273 OA
ATOM      9  N   GLY A   8       9.535  12.846  26.195  0.00  0.00    -0.295 N 
ATOM     10  H   GLY A   8       8.994  12.527  25.366  0.00  0.00    +0.150 HD
BRANCH   9  11
ATOM     11  CA  GLY A   8       9.176  14.115  26.845  0.00  0.00    +0.176 C 
BRANCH  11  12
ATOM     12  C   GLY A   8       9.328  15.327  25.938  0.00  0.00    +0.243 C 
ATOM     13  O   GLY A   8       8.688  16.354  26.154  0.00  0.00    -0.273 OA
ATOM     14  N   GLY A   9      10.182  15.190  24.926  0.00  0.00    -0.295 N 
ATOM     15  H   GLY A   9      10.722  14.305  24.847  0.00  0.00    +0.150 HD
BRANCH  14  16
ATOM     16  CA  GLY A   9      10.393  16.228  23.924  0.00  0.00    +0.176 C 
BRANCH  16  17
ATOM     17  C   GLY A   9      11.290  17.353  24.389  0.00  0.00    +0.246 C 
ATOM     18  O   GLY A   9      11.886  17.294  25.478  0.00  0.00    -0.273 OA
ATOM     19  N   PRO A  10      11.385  18.416  23.582  0.00  0.00    -0.272 N 
ATOM     20  CA  PRO A  10      12.342  19.474  23.904  0.00  0.00    +0.152 C 
ATOM     21  CB  PRO A  10      12.149  20.455  22.758  0.00  0.00    +0.031 C 
ATOM     22  CG  PRO A  10      11.689  19.614  21.623  0.00  0.00    +0.024 C 
ATOM     23  CD  PRO A  10      10.720  18.662  22.297  0.00  0.00    +0.094 C 
BRANCH  20  24
ATOM     24  C   PRO A  10      12.096  20.149  25.259  0.00  0.00    +0.241 C 
ATOM     25  N   TRP A  11      13.175  20.604  25.903  0.00  0.00    -0.297 N 
ATOM     26  H   TRP A  11      14.106  20.506  25.451  0.00  0.00    +0.150 HD
ATOM     27  O   PRO A  10      10.937  20.265  25.698  0.00  0.00    -0.273 OA
BRANCH  25  28
ATOM     28  CA  TRP A  11      13.095  21.238  27.226  0.00  0.00    +0.153 C 
BRANCH  28  29
ATOM     29  C   TRP A  11      14.248  22.225  27.434  0.00  0.00    +0.241 C 
ATOM     30  N   CYS A  12      14.257  22.911  28.577  0.00  0.00    -0.296 N 
ATOM     31  H   CYS A  12      13.435  22.839  29.210  0.00  0.00    +0.150 HD
ATOM     32  O   TRP A  11      15.105  22.364  26.572  0.00  0.00    -0.273 OA
BRANCH  30  33
ATOM     33  CA  CYS A  12      15.371  23.756  28.972  0.00  0.00    +0.160 C 
BRANCH  33  34
ATOM     34  C   CYS A  12      15.452  23.862  30.506  0.00  0.00    +0.242 C 
ATOM     35  O   CYS A  12      14.493  23.543  31.224  0.00  0.00    -0.273 OA
ATOM     36  N   PHE A  13      16.610  24.290  30.995  0.00  0.00    -0.298 N 
ATOM     37  H   PHE A  13      17.455  24.255  30.389  0.00  0.00    +0.150 HD
BRANCH  36  38
ATOM     38  CA  PHE A  13      16.737  24.807  32.353  0.00  0.00    +0.141 C 
BRANCH  38  39
ATOM     39  C   PHE A  13      16.104  26.191  32.428  0.00  0.00    +0.227 C 
ATOM     40  O   PHE A  13      16.189  26.993  31.490  0.00  0.00    -0.286 OA
ENDBRANCH  38  39
BRANCH  38  41
ATOM     41  CB  PHE A  13      18.202  24.848  32.795  0.00  0.00    +0.054 C 
BRANCH  41  42
ATOM     42  CG  PHE A  13      18.865  23.499  32.776  0.00  0.00    -0.020 A 
ATOM     43  CD2 PHE A  13      18.511  22.524  33.710  0.00  0.00    -0.004 A 
ATOM     44  CE2 PHE A  13      19.103  21.270  33.697  0.00  0.00    -0.000 A 
ATOM     45  CZ  PHE A  13      20.064  20.967  32.731  0.00  0.00    -0.000 A 
ATOM     46  CE1 PHE A  13      20.434  21.936  31.794  0.00  0.00    -0.000 A 
ATOM     47  CD1 PHE A  13      19.835  23.198  31.820  0.00  0.00    -0.004 A 
ENDBRANCH  41  42
ENDBRANCH  38  41
ENDBRANCH  36  38
ENDBRANCH  33  34
BRANCH  33  48
ATOM     48  CB  CYS A  12      15.236  25.146  28.354  0.00  0.00    +0.098 C 
ATOM     49  SG  CYS A  12      13.769  26.030  28.936  0.00  0.00    -0.080 S 
ENDBRANCH  33  48
ENDBRANCH  30  33
ENDBRANCH  28  29
BRANCH  28  50
ATOM     50  CB  TRP A  11      13.122  20.175  28.328  0.00  0.00    +0.057 C 
BRANCH  50  51
ATOM     51  CG  TRP A  11      14.335  19.315  28.270  0.00  0.00    -0.002 A 
ATOM     52  CD2 TRP A  11      15.560  19.504  29.001  0.00  0.00    +0.013 A 
ATOM     53  CE3 TRP A  11      16.002  20.459  29.933  0.00  0.00    +0.001 A 
ATOM     54  CZ3 TRP A  11      17.294  20.339  30.457  0.00  0.00    +0.000 A 
ATOM     55  CH2 TRP A  11      18.144  19.285  30.053  0.00  0.00    +0.001 A 
ATOM     56  CZ2 TRP A  11      17.734  18.343  29.133  0.00  0.00    +0.017 A 
ATOM     57  CE2 TRP A  11      16.438  18.462  28.615  0.00  0.00    +0.056 A 
ATOM     58  NE1 TRP A  11      15.775  17.685  27.696  0.00  0.00    -0.352 N 
ATOM     59  HE1 TRP A  11      16.162  16.843  27.223  0.00  0.00    +0.166 HD
ATOM     60  CD1 TRP A  11      14.512  18.205  27.504  0.00  0.00    +0.068 A 
ENDBRANCH  50  51
ENDBRANCH  28  50
ENDBRANCH  25  28
ENDBRANCH  20  24
ENDBRANCH  16  17
ENDBRANCH  14  16
ENDBRANCH  11  12
ENDBRANCH   9  11
ENDBRANCH   6   7
BRANCH   6  61
ATOM     61  CB  GLU A   7      10.340   9.652  26.813  0.00  0.00    +0.041 C 
BRANCH  61  62
ATOM     62  CG  GLU A   7       8.846   9.396  26.785  0.00  0.00    +0.116 C 
BRANCH  62  63
ATOM     63  CD  GLU A   7       8.399   8.804  25.465  0.00  0.00    +0.365 C 
ATOM     64  OE2 GLU A   7       7.313   9.185  24.982  0.00  0.00    -0.246 OA
ATOM     65  OE1 GLU A   7       9.136   7.968  24.903  0.00  0.00    -0.246 OA
ENDBRANCH  62  63
ENDBRANCH  61  62
ENDBRANCH   6  61
ENDBRANCH   3   6
ENDBRANCH   1   2
BRANCH   1  67
ATOM     66  C   GLY A   5      15.591  11.670  22.933  0.00  0.00    +0.243 C 
ATOM     67  N   GLU A   6      15.232  12.166  24.112  0.00  0.00    -0.297 N 
ATOM     68  H   GLU A   6      15.490  13.141  24.366  0.00  0.00    +0.150 HD
ATOM     69  O   GLY A   5      15.214  10.567  22.543  0.00  0.00    -0.273 OA
BRANCH  66  70
ATOM     70  CA  GLY A   5      16.498  12.533  22.076  0.00  0.00    +0.176 C 
BRANCH  70  73
ATOM     71  C   ARG A   4      18.427  12.380  23.559  0.00  0.00    +0.241 C 
ATOM     72  O   ARG A   4      18.369  11.158  23.571  0.00  0.00    -0.273 OA
ATOM     73  N   GLY A   5      17.579  13.134  22.861  0.00  0.00    -0.295 N 
ATOM     74  H   GLY A   5      17.686  14.168  22.874  0.00  0.00    +0.150 HD
BRANCH  71  75
ATOM     75  CA  ARG A   4      19.522  13.114  24.321  0.00  0.00    +0.149 C 
BRANCH  75  77
ATOM     76  C   PRO A   3      19.922  15.168  23.172  0.00  0.00    +0.241 C 
ATOM     77  N   ARG A   4      19.381  14.551  24.208  0.00  0.00    -0.297 N 
ATOM     78  H   ARG A   4      18.862  15.089  24.931  0.00  0.00    +0.150 HD
ATOM     79  O   PRO A   3      20.468  14.564  22.259  0.00  0.00    -0.273 OA
BRANCH  76  85
ATOM     80  C   ASN A   2      17.352  16.787  22.934  0.00  0.00    +0.244 C 
ATOM     81  N   PRO A   3      18.495  17.217  23.526  0.00  0.00    -0.272 N 
ATOM     82  CD  PRO A   3      18.651  18.272  24.542  0.00  0.00    +0.094 C 
ATOM     83  CG  PRO A   3      19.925  17.868  25.217  0.00  0.00    +0.024 C 
ATOM     84  CB  PRO A   3      20.781  17.340  24.121  0.00  0.00    +0.031 C 
ATOM     85  CA  PRO A   3      19.811  16.687  23.127  0.00  0.00    +0.152 C 
ATOM     86  O   ASN A   2      17.334  15.854  22.123  0.00  0.00    -0.273 OA
BRANCH  80  87
ATOM     87  CA  ASN A   2      16.029  17.524  23.297  0.00  0.00    +0.158 C 
BRANCH  87  90
ATOM     88  C   ARG A   1      15.950  19.960  23.641  0.00  0.00    +0.238 C 
ATOM     89  O   ARG A   1      15.687  19.871  24.849  0.00  0.00    -0.274 OA
ATOM     90  N   ASN A   2      16.058  18.913  22.825  0.00  0.00    -0.297 N 
ATOM     91  H   ASN A   2      16.168  19.088  21.806  0.00  0.00    +0.150 HD
BRANCH  88  92
ATOM     92  CA  ARG A   1      16.180  21.321  23.003  0.00  0.00    +0.145 C 
BRANCH  92  93
ATOM     93  N   ARG A   1      15.461  22.371  23.707  0.00  0.00    -0.238 NA
ATOM     94  H   ARG A   1      15.372  22.311  24.741  0.00  0.00    +0.142 HD
ENDBRANCH  92  93
BRANCH  92  95
ATOM     95  CB  ARG A   1      17.686  21.629  22.979  0.00  0.00    +0.030 C 
BRANCH  95  96
ATOM     96  CG  ARG A   1      18.083  22.841  22.095  0.00  0.00    +0.045 C 
BRANCH  96  97
ATOM     97  CD  ARG A   1      17.966  22.515  20.604  0.00  0.00    +0.174 C 
BRANCH  97  98
ATOM     98  NE  ARG A   1      18.252  23.658  19.735  0.00  0.00    -0.265 N 
ATOM     99  HE  ARG A   1      19.248  23.825  19.488  0.00  0.00    +0.259 HD
ATOM    100  CZ  ARG A   1      17.351  24.507  19.230  0.00  0.00    +0.342 C 
ATOM    101  NH2 ARG A   1      16.046  24.395  19.493  0.00  0.00    -0.292 N 
ATOM    102 HH21 ARG A   1      15.703  23.629  20.108  0.00  0.00    +0.255 HD
ATOM    103 HH22 ARG A   1      15.373  25.073  19.083  0.00  0.00    +0.255 HD
ATOM    104  NH1 ARG A   1      17.765  25.494  18.450  0.00  0.00    -0.292 N 
ATOM    105 HH11 ARG A   1      18.778  25.600  18.239  0.00  0.00    +0.255 HD
ATOM    106 HH12 ARG A   1      17.077  26.163  18.049  0.00  0.00    +0.255 HD
ENDBRANCH  97  98
ENDBRANCH  96  97
ENDBRANCH  95  96
ENDBRANCH  92  95
ENDBRANCH  88  92
ENDBRANCH  87  90
BRANCH  87 107
ATOM    107  CB  ASN A   2      14.842  16.768  22.699  0.00  0.00    +0.114 C 
BRANCH 107 108
ATOM    108  CG  ASN A   2      14.599  15.416  23.378  0.00  0.00    +0.222 C 
ATOM    109  OD1 ASN A   2      15.308  15.040  24.317  0.00  0.00    -0.275 OA
ATOM    110  ND2 ASN A   2      13.607  14.680  22.892  0.00  0.00    -0.329 N 
ATOM    111 HD21 ASN A   2      13.402  13.747  23.303  0.00  0.00    +0.145 HD
ATOM    112 HD22 ASN A   2      13.035  15.036  22.100  0.00  0.00    +0.145 HD
ENDBRANCH 107 108
ENDBRANCH  87 107
ENDBRANCH  80  87
ENDBRANCH  76  85
ENDBRANCH  75  77
BRANCH  75 113
ATOM    113  CB  ARG A   4      19.642  12.687  25.788  0.00  0.00    +0.033 C 
BRANCH 113 114
ATOM    114  CG  ARG A   4      20.704  13.479  26.526  0.00  0.00    +0.045 C 
BRANCH 114 115
ATOM    115  CD  ARG A   4      21.265  12.774  27.754  0.00  0.00    +0.174 C 
BRANCH 115 116
ATOM    116  NE  ARG A   4      20.212  12.348  28.671  0.00  0.00    -0.265 N 
ATOM    117  HE  ARG A   4      19.602  13.081  29.086  0.00  0.00    +0.259 HD
ATOM    118  CZ  ARG A   4      19.984  11.083  29.009  0.00  0.00    +0.342 C 
ATOM    119  NH2 ARG A   4      18.997  10.788  29.846  0.00  0.00    -0.292 N 
ATOM    120 HH21 ARG A   4      18.403  11.547  30.237  0.00  0.00    +0.255 HD
ATOM    121 HH22 ARG A   4      18.818   9.798  30.111  0.00  0.00    +0.255 HD
ATOM    122  NH1 ARG A   4      20.749  10.111  28.519  0.00  0.00    -0.292 N 
ATOM    123 HH11 ARG A   4      20.568   9.122  28.786  0.00  0.00    +0.255 HD
ATOM    124 HH12 ARG A   4      21.528  10.340  27.869  0.00  0.00    +0.255 HD
ENDBRANCH 115 116
ENDBRANCH 114 115
ENDBRANCH 113 114
ENDBRANCH  75 113
ENDBRANCH  71  75
ENDBRANCH  70  73
ENDBRANCH  66  70
ENDBRANCH   1  67
BRANCH   1 125
ATOM    125  CB  GLU A   6      15.070  11.454  26.464  0.00  0.00    +0.041 C 
BRANCH 125 126
ATOM    126  CG  GLU A   6      15.400  12.882  26.849  0.00  0.00    +0.116 C 
BRANCH 126 127
ATOM    127  CD  GLU A   6      16.074  12.975  28.178  0.00  0.00    +0.365 C 
ATOM    128  OE2 GLU A   6      15.628  12.300  29.130  0.00  0.00    -0.246 OA
ATOM    129  OE1 GLU A   6      17.058  13.730  28.274  0.00  0.00    -0.246 OA
ENDBRANCH 126 127
ENDBRANCH 125 126
ENDBRANCH   1 125
TORSDOF 45
REMARK  Name = ../refined-set-2016/5ct2/5ct2_pocket.pdb
REMARK  97 active torsions:
REMARK  status: ('A' for Active; 'I' for Inactive)
REMARK    1  A    between atoms: _1  and  _3
REMARK    2  A    between atoms: _3  and  _4
REMARK    3  A    between atoms: _3  and  _6
REMARK    4  A    between atoms: _6  and  _7
REMARK    5  A    between atoms: _17  and  _19
REMARK    6  A    between atoms: _19  and  _20
REMARK    7  A    between atoms: _19  and  _22
REMARK    8  A    between atoms: _22  and  _23
REMARK    9  A    between atoms: _28  and  _30
REMARK   10  A    between atoms: _30  and  _31
REMARK   11  A    between atoms: _30  and  _33
REMARK   12  A    between atoms: _33  and  _34
REMARK   13  A    between atoms: _34  and  _35
REMARK   14  A    between atoms: _38  and  _40
REMARK   15  A    between atoms: _40  and  _41
REMARK   16  A    between atoms: _40  and  _43
REMARK   17  A    between atoms: _43  and  _44
REMARK   18  A    between atoms: _49  and  _51
REMARK   19  A    between atoms: _51  and  _52
REMARK   20  A    between atoms: _51  and  _54
REMARK   21  A    between atoms: _54  and  _55
REMARK   22  A    between atoms: _57  and  _59
REMARK   23  A    between atoms: _59  and  _60
REMARK   24  A    between atoms: _59  and  _62
REMARK   25  A    between atoms: _62  and  _63
REMARK   26  A    between atoms: _69  and  _71
REMARK   27  A    between atoms: _71  and  _72
REMARK   28  A    between atoms: _71  and  _74
REMARK   29  A    between atoms: _74  and  _75
REMARK   30  A    between atoms: _80  and  _81
REMARK   31  A    between atoms: _83  and  _85
REMARK   32  A    between atoms: _85  and  _86
REMARK   33  A    between atoms: _85  and  _88
REMARK   34  A    between atoms: _88  and  _89
REMARK   35  A    between atoms: _89  and  _90
REMARK   36  A    between atoms: _90  and  _91
REMARK   37  A    between atoms: _100  and  _102
REMARK   38  A    between atoms: _102  and  _103
REMARK   39  A    between atoms: _102  and  _105
REMARK   40  A    between atoms: _105  and  _106
REMARK   41  A    between atoms: _112  and  _113
REMARK   42  A    between atoms: _118  and  _120
REMARK   43  A    between atoms: _120  and  _121
REMARK   44  A    between atoms: _120  and  _123
REMARK   45  A    between atoms: _123  and  _124
REMARK   46  A    between atoms: _124  and  _125
REMARK   47  A    between atoms: _125  and  _126
REMARK   48  A    between atoms: _135  and  _137
REMARK   49  A    between atoms: _137  and  _138
REMARK   50  A    between atoms: _140  and  _142
REMARK   51  A    between atoms: _142  and  _143
REMARK   52  A    between atoms: _142  and  _145
REMARK   53  A    between atoms: _145  and  _146
REMARK   54  A    between atoms: _146  and  _147
REMARK   55  A    between atoms: _150  and  _152
REMARK   56  A    between atoms: _152  and  _153
REMARK   57  A    between atoms: _152  and  _155
REMARK   58  A    between atoms: _155  and  _156
REMARK   59  A    between atoms: _156  and  _157
REMARK   60  A    between atoms: _160  and  _162
REMARK   61  A    between atoms: _162  and  _163
REMARK   62  A    between atoms: _165  and  _167
REMARK   63  A    between atoms: _167  and  _168
REMARK   64  A    between atoms: _171  and  _172
REMARK   65  A    between atoms: _177  and  _179
REMARK   66  A    between atoms: _179  and  _180
REMARK   67  A    between atoms: _179  and  _182
REMARK   68  A    between atoms: _182  and  _183
REMARK   69  A    between atoms: _193  and  _195
REMARK   70  A    between atoms: _195  and  _196
REMARK   71  A    between atoms: _195  and  _198
REMARK   72  A    between atoms: _200  and  _202
REMARK   73  A    between atoms: _202  and  _203
REMARK   74  A    between atoms: _202  and  _205
REMARK   75  A    between atoms: _205  and  _206
REMARK   76  A    between atoms: _212  and  _214
REMARK   77  A    between atoms: _214  and  _215
REMARK   78  A    between atoms: _214  and  _217
REMARK   79  A    between atoms: _217  and  _218
REMARK   80  A    between atoms: _218  and  _219
REMARK   81  A    between atoms: _219  and  _220
REMARK   82  A    between atoms: _229  and  _231
REMARK   83  A    between atoms: _231  and  _232
REMARK   84  A    between atoms: _231  and  _234
REMARK   85  A    between atoms: _234  and  _235
REMARK   86  A    between atoms: _240  and  _241
REMARK   87  A    between atoms: _243  and  _245
REMARK   88  A    between atoms: _245  and  _246
REMARK   89  A    between atoms: _245  and  _248
REMARK   90  A    between atoms: _248  and  _249
REMARK   91  A    between atoms: _249  and  _250
REMARK   92  A    between atoms: _253  and  _255
REMARK   93  A    between atoms: _255  and  _256
REMARK   94  A    between atoms: _255  and  _258
REMARK   95  A    between atoms: _261  and  _263
REMARK   96  A    between atoms: _263  and  _264
REMARK   97  A    between atoms: _263  and  _266
REMARK                            x       y       z     vdW  Elec       q    Type
REMARK                         _______ _______ _______ _____ _____    ______ ____
ROOT
ATOM      1  CA  TYR A   2      13.883  22.716  34.264  0.00  0.00    +0.153 C 
ENDROOT
BRANCH   1   3
ATOM      2  C   ARG A   1      15.104  23.733  36.132  0.00  0.00    +0.238 C 
ATOM      3  N   TYR A   2      14.130  22.937  35.693  0.00  0.00    -0.297 N 
ATOM      4  H   TYR A   2      13.524  22.456  36.388  0.00  0.00    +0.150 HD
ATOM      5  O   ARG A   1      15.863  24.352  35.378  0.00  0.00    -0.274 OA
BRANCH   2   6
ATOM      6  CA  ARG A   1      15.246  23.850  37.664  0.00  0.00    +0.145 C 
BRANCH   6   7
ATOM      7  N   ARG A   1      13.988  24.237  38.311  0.00  0.00    -0.238 NA
ATOM      8  H   ARG A   1      13.589  23.621  39.048  0.00  0.00    +0.142 HD
ENDBRANCH   6   7
BRANCH   6   9
ATOM      9  CB  ARG A   1      15.782  22.545  38.270  0.00  0.00    +0.030 C 
BRANCH   9  10
ATOM     10  CG  ARG A   1      17.182  22.167  37.817  0.00  0.00    +0.045 C 
BRANCH  10  11
ATOM     11  CD  ARG A   1      17.602  20.816  38.439  0.00  0.00    +0.174 C 
BRANCH  11  12
ATOM     12  NE  ARG A   1      18.674  20.163  37.685  0.00  0.00    -0.265 N 
ATOM     13  CZ  ARG A   1      19.942  20.562  37.688  0.00  0.00    +0.342 C 
ATOM     14  NH2 ARG A   1      20.316  21.622  38.399  0.00  0.00    -0.292 N 
ATOM     15 HH21 ARG A   1      19.614  22.147  38.959  0.00  0.00    +0.255 HD
ATOM     16 HH22 ARG A   1      21.310  21.926  38.395  0.00  0.00    +0.255 HD
ATOM     17  NH1 ARG A   1      20.842  19.912  36.967  0.00  0.00    -0.292 N 
ATOM     18 HH11 ARG A   1      21.834  20.224  36.969  0.00  0.00    +0.255 HD
ATOM     19 HH12 ARG A   1      20.557  19.089  36.398  0.00  0.00    +0.255 HD
ATOM     20  HE  ARG A   1      18.427  19.333  37.109  0.00  0.00    +0.259 HD
ENDBRANCH  11  12
ENDBRANCH  10  11
ENDBRANCH   9  10
ENDBRANCH   6   9
ENDBRANCH   2   6
ENDBRANCH   1   3
BRANCH   1  21
ATOM     21  C   TYR A   2      12.415  22.447  34.013  0.00  0.00    +0.241 C 
ATOM     22  O   TYR A   2      11.701  22.015  34.921  0.00  0.00    -0.273 OA
ATOM     23  N   GLU A   3      11.975  22.676  32.775  0.00  0.00    -0.297 N 
ATOM     24  H   GLU A   3      12.623  23.115  32.091  0.00  0.00    +0.150 HD
BRANCH  23  25
ATOM     25  CA  GLU A   3      10.612  22.335  32.334  0.00  0.00    +0.149 C 
BRANCH  25  26
ATOM     26  C   GLU A   3      10.569  22.062  30.807  0.00  0.00    +0.241 C 
ATOM     27  N   VAL A   4       9.751  21.094  30.400  0.00  0.00    -0.297 N 
ATOM     28  H   VAL A   4       9.305  20.472  31.104  0.00  0.00    +0.150 HD
ATOM     29  O   GLU A   3      11.283  22.710  30.028  0.00  0.00    -0.273 OA
BRANCH  27  30
ATOM     30  CA  VAL A   4       9.468  20.889  28.976  0.00  0.00    +0.149 C 
BRANCH  30  31
ATOM     31  C   VAL A   4       8.962  22.161  28.296  0.00  0.00    +0.241 C 
ATOM     32  O   VAL A   4       8.406  23.068  28.932  0.00  0.00    -0.273 OA
ATOM     33  N   CYS A   5       9.194  22.232  26.994  0.00  0.00    -0.297 N 
ATOM     34  H   CYS A   5       9.826  21.536  26.548  0.00  0.00    +0.150 HD
BRANCH  33  35
ATOM     35  CA  CYS A   5       8.585  23.258  26.186  0.00  0.00    +0.149 C 
BRANCH  35  36
ATOM     36  CB  CYS A   5       9.608  23.813  25.212  0.00  0.00    +0.096 C 
ATOM     37  SG  CYS A   5      10.986  24.434  26.152  0.00  0.00    -0.080 S 
ENDBRANCH  35  36
BRANCH  35  38
ATOM     38  C   CYS A   5       7.359  22.717  25.485  0.00  0.00    +0.228 C 
ATOM     39  O   CYS A   5       7.212  21.506  25.310  0.00  0.00    -0.286 OA
ENDBRANCH  35  38
ENDBRANCH  33  35
ENDBRANCH  30  31
BRANCH  30  40
ATOM     40  CB  VAL A   4       8.439  19.783  28.737  0.00  0.00    +0.027 C 
ATOM     41  CG2 VAL A   4       7.218  19.987  29.635  0.00  0.00    +0.002 C 
ATOM     42  CG1 VAL A   4       9.062  18.414  28.964  0.00  0.00    +0.002 C 
ENDBRANCH  30  40
ENDBRANCH  27  30
ENDBRANCH  25  26
BRANCH  25  43
ATOM     43  CB  GLU A   3       9.612  23.444  32.734  0.00  0.00    +0.041 C 
BRANCH  43  44
ATOM     44  CG  GLU A   3       8.128  23.085  32.537  0.00  0.00    +0.116 C 
BRANCH  44  45
ATOM     45  CD  GLU A   3       7.177  24.198  32.966  0.00  0.00    +0.365 C 
ATOM     46  OE2 GLU A   3       6.190  23.882  33.646  0.00  0.00    -0.246 OA
ATOM     47  OE1 GLU A   3       7.400  25.385  32.622  0.00  0.00    -0.246 OA
ENDBRANCH  44  45
ENDBRANCH  43  44
ENDBRANCH  25  43
ENDBRANCH  23  25
ENDBRANCH   1  21
BRANCH   1  48
ATOM     48  CB  TYR A   2      14.698  21.526  33.750  0.00  0.00    +0.055 C 
BRANCH  48  49
ATOM     49  CG  TYR A   2      14.372  20.207  34.422  0.00  0.00    -0.020 A 
ATOM     50  CD2 TYR A   2      15.266  19.623  35.323  0.00  0.00    -0.001 A 
ATOM     51  CE2 TYR A   2      14.977  18.404  35.946  0.00  0.00    +0.036 A 
ATOM     52  CZ  TYR A   2      13.777  17.770  35.663  0.00  0.00    +0.134 A 
ATOM     53  CE1 TYR A   2      12.875  18.334  34.775  0.00  0.00    +0.036 A 
ATOM     54  CD1 TYR A   2      13.176  19.540  34.157  0.00  0.00    -0.001 A 
BRANCH  52  55
ATOM     55  OH  TYR A   2      13.467  16.569  36.269  0.00  0.00    -0.506 OA
ATOM     56  HH  TYR A   2      14.154  15.895  36.034  0.00  0.00    +0.292 HD
ENDBRANCH  52  55
ENDBRANCH  48  49
ENDBRANCH   1  48
TORSDOF 22
REMARK  Name = ../refined-set-2016/5ct2/5ct2_pocket.pdb
REMARK  97 active torsions:
REMARK  status: ('A' for Active; 'I' for Inactive)
REMARK    1  A    between atoms: _1  and  _3
REMARK    2  A    between atoms: _3  and  _4
REMARK    3  A    between atoms: _3  and  _6
REMARK    4  A    between atoms: _6  and  _7
REMARK    5  A    between atoms: _17  and  _19
REMARK    6  A    between atoms: _19  and  _20
REMARK    7  A    between atoms: _19  and  _22
REMARK    8  A    between atoms: _22  and  _23
REMARK    9  A    between atoms: _28  and  _30
REMARK   10  A    between atoms: _30  and  _31
REMARK   11  A    between atoms: _30  and  _33
REMARK   12  A    between atoms: _33  and  _34
REMARK   13  A    between atoms: _34  and  _35
REMARK   14  A    between atoms: _38  and  _40
REMARK   15  A    between atoms: _40  and  _41
REMARK   16  A    between atoms: _40  and  _43
REMARK   17  A    between atoms: _43  and  _44
REMARK   18  A    between atoms: _49  and  _51
REMARK   19  A    between atoms: _51  and  _52
REMARK   20  A    between atoms: _51  and  _54
REMARK   21  A    between atoms: _54  and  _55
REMARK   22  A    between atoms: _57  and  _59
REMARK   23  A    between atoms: _59  and  _60
REMARK   24  A    between atoms: _59  and  _62
REMARK   25  A    between atoms: _62  and  _63
REMARK   26  A    between atoms: _69  and  _71
REMARK   27  A    between atoms: _71  and  _72
REMARK   28  A    between atoms: _71  and  _74
REMARK   29  A    between atoms: _74  and  _75
REMARK   30  A    between atoms: _80  and  _81
REMARK   31  A    between atoms: _83  and  _85
REMARK   32  A    between atoms: _85  and  _86
REMARK   33  A    between atoms: _85  and  _88
REMARK   34  A    between atoms: _88  and  _89
REMARK   35  A    between atoms: _89  and  _90
REMARK   36  A    between atoms: _90  and  _91
REMARK   37  A    between atoms: _100  and  _102
REMARK   38  A    between atoms: _102  and  _103
REMARK   39  A    between atoms: _102  and  _105
REMARK   40  A    between atoms: _105  and  _106
REMARK   41  A    between atoms: _112  and  _113
REMARK   42  A    between atoms: _118  and  _120
REMARK   43  A    between atoms: _120  and  _121
REMARK   44  A    between atoms: _120  and  _123
REMARK   45  A    between atoms: _123  and  _124
REMARK   46  A    between atoms: _124  and  _125
REMARK   47  A    between atoms: _125  and  _126
REMARK   48  A    between atoms: _135  and  _137
REMARK   49  A    between atoms: _137  and  _138
REMARK   50  A    between atoms: _140  and  _142
REMARK   51  A    between atoms: _142  and  _143
REMARK   52  A    between atoms: _142  and  _145
REMARK   53  A    between atoms: _145  and  _146
REMARK   54  A    between atoms: _146  and  _147
REMARK   55  A    between atoms: _150  and  _152
REMARK   56  A    between atoms: _152  and  _153
REMARK   57  A    between atoms: _152  and  _155
REMARK   58  A    between atoms: _155  and  _156
REMARK   59  A    between atoms: _156  and  _157
REMARK   60  A    between atoms: _160  and  _162
REMARK   61  A    between atoms: _162  and  _163
REMARK   62  A    between atoms: _165  and  _167
REMARK   63  A    between atoms: _167  and  _168
REMARK   64  A    between atoms: _171  and  _172
REMARK   65  A    between atoms: _177  and  _179
REMARK   66  A    between atoms: _179  and  _180
REMARK   67  A    between atoms: _179  and  _182
REMARK   68  A    between atoms: _182  and  _183
REMARK   69  A    between atoms: _193  and  _195
REMARK   70  A    between atoms: _195  and  _196
REMARK   71  A    between atoms: _195  and  _198
REMARK   72  A    between atoms: _200  and  _202
REMARK   73  A    between atoms: _202  and  _203
REMARK   74  A    between atoms: _202  and  _205
REMARK   75  A    between atoms: _205  and  _206
REMARK   76  A    between atoms: _212  and  _214
REMARK   77  A    between atoms: _214  and  _215
REMARK   78  A    between atoms: _214  and  _217
REMARK   79  A    between atoms: _217  and  _218
REMARK   80  A    between atoms: _218  and  _219
REMARK   81  A    between atoms: _219  and  _220
REMARK   82  A    between atoms: _229  and  _231
REMARK   83  A    between atoms: _231  and  _232
REMARK   84  A    between atoms: _231  and  _234
REMARK   85  A    between atoms: _234  and  _235
REMARK   86  A    between atoms: _240  and  _241
REMARK   87  A    between atoms: _243  and  _245
REMARK   88  A    between atoms: _245  and  _246
REMARK   89  A    between atoms: _245  and  _248
REMARK   90  A    between atoms: _248  and  _249
REMARK   91  A    between atoms: _249  and  _250
REMARK   92  A    between atoms: _253  and  _255
REMARK   93  A    between atoms: _255  and  _256
REMARK   94  A    between atoms: _255  and  _258
REMARK   95  A    between atoms: _261  and  _263
REMARK   96  A    between atoms: _263  and  _264
REMARK   97  A    between atoms: _263  and  _266
REMARK                            x       y       z     vdW  Elec       q    Type
REMARK                         _______ _______ _______ _____ _____    ______ ____
ROOT
ATOM      1  O   HOH     1      22.969  18.421  34.216  0.00  0.00    +0.000 OA
ENDROOT
TORSDOF 0
REMARK  Name = ../refined-set-2016/5ct2/5ct2_pocket.pdb
REMARK  97 active torsions:
REMARK  status: ('A' for Active; 'I' for Inactive)
REMARK    1  A    between atoms: _1  and  _3
REMARK    2  A    between atoms: _3  and  _4
REMARK    3  A    between atoms: _3  and  _6
REMARK    4  A    between atoms: _6  and  _7
REMARK    5  A    between atoms: _17  and  _19
REMARK    6  A    between atoms: _19  and  _20
REMARK    7  A    between atoms: _19  and  _22
REMARK    8  A    between atoms: _22  and  _23
REMARK    9  A    between atoms: _28  and  _30
REMARK   10  A    between atoms: _30  and  _31
REMARK   11  A    between atoms: _30  and  _33
REMARK   12  A    between atoms: _33  and  _34
REMARK   13  A    between atoms: _34  and  _35
REMARK   14  A    between atoms: _38  and  _40
REMARK   15  A    between atoms: _40  and  _41
REMARK   16  A    between atoms: _40  and  _43
REMARK   17  A    between atoms: _43  and  _44
REMARK   18  A    between atoms: _49  and  _51
REMARK   19  A    between atoms: _51  and  _52
REMARK   20  A    between atoms: _51  and  _54
REMARK   21  A    between atoms: _54  and  _55
REMARK   22  A    between atoms: _57  and  _59
REMARK   23  A    between atoms: _59  and  _60
REMARK   24  A    between atoms: _59  and  _62
REMARK   25  A    between atoms: _62  and  _63
REMARK   26  A    between atoms: _69  and  _71
REMARK   27  A    between atoms: _71  and  _72
REMARK   28  A    between atoms: _71  and  _74
REMARK   29  A    between atoms: _74  and  _75
REMARK   30  A    between atoms: _80  and  _81
REMARK   31  A    between atoms: _83  and  _85
REMARK   32  A    between atoms: _85  and  _86
REMARK   33  A    between atoms: _85  and  _88
REMARK   34  A    between atoms: _88  and  _89
REMARK   35  A    between atoms: _89  and  _90
REMARK   36  A    between atoms: _90  and  _91
REMARK   37  A    between atoms: _100  and  _102
REMARK   38  A    between atoms: _102  and  _103
REMARK   39  A    between atoms: _102  and  _105
REMARK   40  A    between atoms: _105  and  _106
REMARK   41  A    between atoms: _112  and  _113
REMARK   42  A    between atoms: _118  and  _120
REMARK   43  A    between atoms: _120  and  _121
REMARK   44  A    between atoms: _120  and  _123
REMARK   45  A    between atoms: _123  and  _124
REMARK   46  A    between atoms: _124  and  _125
REMARK   47  A    between atoms: _125  and  _126
REMARK   48  A    between atoms: _135  and  _137
REMARK   49  A    between atoms: _137  and  _138
REMARK   50  A    between atoms: _140  and  _142
REMARK   51  A    between atoms: _142  and  _143
REMARK   52  A    between atoms: _142  and  _145
REMARK   53  A    between atoms: _145  and  _146
REMARK   54  A    between atoms: _146  and  _147
REMARK   55  A    between atoms: _150  and  _152
REMARK   56  A    between atoms: _152  and  _153
REMARK   57  A    between atoms: _152  and  _155
REMARK   58  A    between atoms: _155  and  _156
REMARK   59  A    between atoms: _156  and  _157
REMARK   60  A    between atoms: _160  and  _162
REMARK   61  A    between atoms: _162  and  _163
REMARK   62  A    between atoms: _165  and  _167
REMARK   63  A    between atoms: _167  and  _168
REMARK   64  A    between atoms: _171  and  _172
REMARK   65  A    between atoms: _177  and  _179
REMARK   66  A    between atoms: _179  and  _180
REMARK   67  A    between atoms: _179  and  _182
REMARK   68  A    between atoms: _182  and  _183
REMARK   69  A    between atoms: _193  and  _195
REMARK   70  A    between atoms: _195  and  _196
REMARK   71  A    between atoms: _195  and  _198
REMARK   72  A    between atoms: _200  and  _202
REMARK   73  A    between atoms: _202  and  _203
REMARK   74  A    between atoms: _202  and  _205
REMARK   75  A    between atoms: _205  and  _206
REMARK   76  A    between atoms: _212  and  _214
REMARK   77  A    between atoms: _214  and  _215
REMARK   78  A    between atoms: _214  and  _217
REMARK   79  A    between atoms: _217  and  _218
REMARK   80  A    between atoms: _218  and  _219
REMARK   81  A    between atoms: _219  and  _220
REMARK   82  A    between atoms: _229  and  _231
REMARK   83  A    between atoms: _231  and  _232
REMARK   84  A    between atoms: _231  and  _234
REMARK   85  A    between atoms: _234  and  _235
REMARK   86  A    between atoms: _240  and  _241
REMARK   87  A    between atoms: _243  and  _245
REMARK   88  A    between atoms: _245  and  _246
REMARK   89  A    between atoms: _245  and  _248
REMARK   90  A    between atoms: _248  and  _249
REMARK   91  A    between atoms: _249  and  _250
REMARK   92  A    between atoms: _253  and  _255
REMARK   93  A    between atoms: _255  and  _256
REMARK   94  A    between atoms: _255  and  _258
REMARK   95  A    between atoms: _261  and  _263
REMARK   96  A    between atoms: _263  and  _264
REMARK   97  A    between atoms: _263  and  _266
REMARK                            x       y       z     vdW  Elec       q    Type
REMARK                         _______ _______ _______ _____ _____    ______ ____
ROOT
ATOM      1  O   HOH     1      13.409  10.860  29.410  0.00  0.00    +0.000 OA
ENDROOT
TORSDOF 0
REMARK  Name = ../refined-set-2016/5ct2/5ct2_pocket.pdb
REMARK  97 active torsions:
REMARK  status: ('A' for Active; 'I' for Inactive)
REMARK    1  A    between atoms: _1  and  _3
REMARK    2  A    between atoms: _3  and  _4
REMARK    3  A    between atoms: _3  and  _6
REMARK    4  A    between atoms: _6  and  _7
REMARK    5  A    between atoms: _17  and  _19
REMARK    6  A    between atoms: _19  and  _20
REMARK    7  A    between atoms: _19  and  _22
REMARK    8  A    between atoms: _22  and  _23
REMARK    9  A    between atoms: _28  and  _30
REMARK   10  A    between atoms: _30  and  _31
REMARK   11  A    between atoms: _30  and  _33
REMARK   12  A    between atoms: _33  and  _34
REMARK   13  A    between atoms: _34  and  _35
REMARK   14  A    between atoms: _38  and  _40
REMARK   15  A    between atoms: _40  and  _41
REMARK   16  A    between atoms: _40  and  _43
REMARK   17  A    between atoms: _43  and  _44
REMARK   18  A    between atoms: _49  and  _51
REMARK   19  A    between atoms: _51  and  _52
REMARK   20  A    between atoms: _51  and  _54
REMARK   21  A    between atoms: _54  and  _55
REMARK   22  A    between atoms: _57  and  _59
REMARK   23  A    between atoms: _59  and  _60
REMARK   24  A    between atoms: _59  and  _62
REMARK   25  A    between atoms: _62  and  _63
REMARK   26  A    between atoms: _69  and  _71
REMARK   27  A    between atoms: _71  and  _72
REMARK   28  A    between atoms: _71  and  _74
REMARK   29  A    between atoms: _74  and  _75
REMARK   30  A    between atoms: _80  and  _81
REMARK   31  A    between atoms: _83  and  _85
REMARK   32  A    between atoms: _85  and  _86
REMARK   33  A    between atoms: _85  and  _88
REMARK   34  A    between atoms: _88  and  _89
REMARK   35  A    between atoms: _89  and  _90
REMARK   36  A    between atoms: _90  and  _91
REMARK   37  A    between atoms: _100  and  _102
REMARK   38  A    between atoms: _102  and  _103
REMARK   39  A    between atoms: _102  and  _105
REMARK   40  A    between atoms: _105  and  _106
REMARK   41  A    between atoms: _112  and  _113
REMARK   42  A    between atoms: _118  and  _120
REMARK   43  A    between atoms: _120  and  _121
REMARK   44  A    between atoms: _120  and  _123
REMARK   45  A    between atoms: _123  and  _124
REMARK   46  A    between atoms: _124  and  _125
REMARK   47  A    between atoms: _125  and  _126
REMARK   48  A    between atoms: _135  and  _137
REMARK   49  A    between atoms: _137  and  _138
REMARK   50  A    between atoms: _140  and  _142
REMARK   51  A    between atoms: _142  and  _143
REMARK   52  A    between atoms: _142  and  _145
REMARK   53  A    between atoms: _145  and  _146
REMARK   54  A    between atoms: _146  and  _147
REMARK   55  A    between atoms: _150  and  _152
REMARK   56  A    between atoms: _152  and  _153
REMARK   57  A    between atoms: _152  and  _155
REMARK   58  A    between atoms: _155  and  _156
REMARK   59  A    between atoms: _156  and  _157
REMARK   60  A    between atoms: _160  and  _162
REMARK   61  A    between atoms: _162  and  _163
REMARK   62  A    between atoms: _165  and  _167
REMARK   63  A    between atoms: _167  and  _168
REMARK   64  A    between atoms: _171  and  _172
REMARK   65  A    between atoms: _177  and  _179
REMARK   66  A    between atoms: _179  and  _180
REMARK   67  A    between atoms: _179  and  _182
REMARK   68  A    between atoms: _182  and  _183
REMARK   69  A    between atoms: _193  and  _195
REMARK   70  A    between atoms: _195  and  _196
REMARK   71  A    between atoms: _195  and  _198
REMARK   72  A    between atoms: _200  and  _202
REMARK   73  A    between atoms: _202  and  _203
REMARK   74  A    between atoms: _202  and  _205
REMARK   75  A    between atoms: _205  and  _206
REMARK   76  A    between atoms: _212  and  _214
REMARK   77  A    between atoms: _214  and  _215
REMARK   78  A    between atoms: _214  and  _217
REMARK   79  A    between atoms: _217  and  _218
REMARK   80  A    between atoms: _218  and  _219
REMARK   81  A    between atoms: _219  and  _220
REMARK   82  A    between atoms: _229  and  _231
REMARK   83  A    between atoms: _231  and  _232
REMARK   84  A    between atoms: _231  and  _234
REMARK   85  A    between atoms: _234  and  _235
REMARK   86  A    between atoms: _240  and  _241
REMARK   87  A    between atoms: _243  and  _245
REMARK   88  A    between atoms: _245  and  _246
REMARK   89  A    between atoms: _245  and  _248
REMARK   90  A    between atoms: _248  and  _249
REMARK   91  A    between atoms: _249  and  _250
REMARK   92  A    between atoms: _253  and  _255
REMARK   93  A    between atoms: _255  and  _256
REMARK   94  A    between atoms: _255  and  _258
REMARK   95  A    between atoms: _261  and  _263
REMARK   96  A    between atoms: _263  and  _264
REMARK   97  A    between atoms: _263  and  _266
REMARK                            x       y       z     vdW  Elec       q    Type
REMARK                         _______ _______ _______ _____ _____    ______ ____
ROOT
ATOM      1  O   HOH     1      13.717  14.533  34.534  0.00  0.00    +0.000 OA
ENDROOT
TORSDOF 0
REMARK  Name = ../refined-set-2016/5ct2/5ct2_pocket.pdb
REMARK  97 active torsions:
REMARK  status: ('A' for Active; 'I' for Inactive)
REMARK    1  A    between atoms: _1  and  _3
REMARK    2  A    between atoms: _3  and  _4
REMARK    3  A    between atoms: _3  and  _6
REMARK    4  A    between atoms: _6  and  _7
REMARK    5  A    between atoms: _17  and  _19
REMARK    6  A    between atoms: _19  and  _20
REMARK    7  A    between atoms: _19  and  _22
REMARK    8  A    between atoms: _22  and  _23
REMARK    9  A    between atoms: _28  and  _30
REMARK   10  A    between atoms: _30  and  _31
REMARK   11  A    between atoms: _30  and  _33
REMARK   12  A    between atoms: _33  and  _34
REMARK   13  A    between atoms: _34  and  _35
REMARK   14  A    between atoms: _38  and  _40
REMARK   15  A    between atoms: _40  and  _41
REMARK   16  A    between atoms: _40  and  _43
REMARK   17  A    between atoms: _43  and  _44
REMARK   18  A    between atoms: _49  and  _51
REMARK   19  A    between atoms: _51  and  _52
REMARK   20  A    between atoms: _51  and  _54
REMARK   21  A    between atoms: _54  and  _55
REMARK   22  A    between atoms: _57  and  _59
REMARK   23  A    between atoms: _59  and  _60
REMARK   24  A    between atoms: _59  and  _62
REMARK   25  A    between atoms: _62  and  _63
REMARK   26  A    between atoms: _69  and  _71
REMARK   27  A    between atoms: _71  and  _72
REMARK   28  A    between atoms: _71  and  _74
REMARK   29  A    between atoms: _74  and  _75
REMARK   30  A    between atoms: _80  and  _81
REMARK   31  A    between atoms: _83  and  _85
REMARK   32  A    between atoms: _85  and  _86
REMARK   33  A    between atoms: _85  and  _88
REMARK   34  A    between atoms: _88  and  _89
REMARK   35  A    between atoms: _89  and  _90
REMARK   36  A    between atoms: _90  and  _91
REMARK   37  A    between atoms: _100  and  _102
REMARK   38  A    between atoms: _102  and  _103
REMARK   39  A    between atoms: _102  and  _105
REMARK   40  A    between atoms: _105  and  _106
REMARK   41  A    between atoms: _112  and  _113
REMARK   42  A    between atoms: _118  and  _120
REMARK   43  A    between atoms: _120  and  _121
REMARK   44  A    between atoms: _120  and  _123
REMARK   45  A    between atoms: _123  and  _124
REMARK   46  A    between atoms: _124  and  _125
REMARK   47  A    between atoms: _125  and  _126
REMARK   48  A    between atoms: _135  and  _137
REMARK   49  A    between atoms: _137  and  _138
REMARK   50  A    between atoms: _140  and  _142
REMARK   51  A    between atoms: _142  and  _143
REMARK   52  A    between atoms: _142  and  _145
REMARK   53  A    between atoms: _145  and  _146
REMARK   54  A    between atoms: _146  and  _147
REMARK   55  A    between atoms: _150  and  _152
REMARK   56  A    between atoms: _152  and  _153
REMARK   57  A    between atoms: _152  and  _155
REMARK   58  A    between atoms: _155  and  _156
REMARK   59  A    between atoms: _156  and  _157
REMARK   60  A    between atoms: _160  and  _162
REMARK   61  A    between atoms: _162  and  _163
REMARK   62  A    between atoms: _165  and  _167
REMARK   63  A    between atoms: _167  and  _168
REMARK   64  A    between atoms: _171  and  _172
REMARK   65  A    between atoms: _177  and  _179
REMARK   66  A    between atoms: _179  and  _180
REMARK   67  A    between atoms: _179  and  _182
REMARK   68  A    between atoms: _182  and  _183
REMARK   69  A    between atoms: _193  and  _195
REMARK   70  A    between atoms: _195  and  _196
REMARK   71  A    between atoms: _195  and  _198
REMARK   72  A    between atoms: _200  and  _202
REMARK   73  A    between atoms: _202  and  _203
REMARK   74  A    between atoms: _202  and  _205
REMARK   75  A    between atoms: _205  and  _206
REMARK   76  A    between atoms: _212  and  _214
REMARK   77  A    between atoms: _214  and  _215
REMARK   78  A    between atoms: _214  and  _217
REMARK   79  A    between atoms: _217  and  _218
REMARK   80  A    between atoms: _218  and  _219
REMARK   81  A    between atoms: _219  and  _220
REMARK   82  A    between atoms: _229  and  _231
REMARK   83  A    between atoms: _231  and  _232
REMARK   84  A    between atoms: _231  and  _234
REMARK   85  A    between atoms: _234  and  _235
REMARK   86  A    between atoms: _240  and  _241
REMARK   87  A    between atoms: _243  and  _245
REMARK   88  A    between atoms: _245  and  _246
REMARK   89  A    between atoms: _245  and  _248
REMARK   90  A    between atoms: _248  and  _249
REMARK   91  A    between atoms: _249  and  _250
REMARK   92  A    between atoms: _253  and  _255
REMARK   93  A    between atoms: _255  and  _256
REMARK   94  A    between atoms: _255  and  _258
REMARK   95  A    between atoms: _261  and  _263
REMARK   96  A    between atoms: _263  and  _264
REMARK   97  A    between atoms: _263  and  _266
REMARK                            x       y       z     vdW  Elec       q    Type
REMARK                         _______ _______ _______ _____ _____    ______ ____
ROOT
ATOM      1  O   HOH     1      18.413   8.608  28.353  0.00  0.00    +0.000 OA
ENDROOT
TORSDOF 0
REMARK  Name = ../refined-set-2016/5ct2/5ct2_pocket.pdb
REMARK  97 active torsions:
REMARK  status: ('A' for Active; 'I' for Inactive)
REMARK    1  A    between atoms: _1  and  _3
REMARK    2  A    between atoms: _3  and  _4
REMARK    3  A    between atoms: _3  and  _6
REMARK    4  A    between atoms: _6  and  _7
REMARK    5  A    between atoms: _17  and  _19
REMARK    6  A    between atoms: _19  and  _20
REMARK    7  A    between atoms: _19  and  _22
REMARK    8  A    between atoms: _22  and  _23
REMARK    9  A    between atoms: _28  and  _30
REMARK   10  A    between atoms: _30  and  _31
REMARK   11  A    between atoms: _30  and  _33
REMARK   12  A    between atoms: _33  and  _34
REMARK   13  A    between atoms: _34  and  _35
REMARK   14  A    between atoms: _38  and  _40
REMARK   15  A    between atoms: _40  and  _41
REMARK   16  A    between atoms: _40  and  _43
REMARK   17  A    between atoms: _43  and  _44
REMARK   18  A    between atoms: _49  and  _51
REMARK   19  A    between atoms: _51  and  _52
REMARK   20  A    between atoms: _51  and  _54
REMARK   21  A    between atoms: _54  and  _55
REMARK   22  A    between atoms: _57  and  _59
REMARK   23  A    between atoms: _59  and  _60
REMARK   24  A    between atoms: _59  and  _62
REMARK   25  A    between atoms: _62  and  _63
REMARK   26  A    between atoms: _69  and  _71
REMARK   27  A    between atoms: _71  and  _72
REMARK   28  A    between atoms: _71  and  _74
REMARK   29  A    between atoms: _74  and  _75
REMARK   30  A    between atoms: _80  and  _81
REMARK   31  A    between atoms: _83  and  _85
REMARK   32  A    between atoms: _85  and  _86
REMARK   33  A    between atoms: _85  and  _88
REMARK   34  A    between atoms: _88  and  _89
REMARK   35  A    between atoms: _89  and  _90
REMARK   36  A    between atoms: _90  and  _91
REMARK   37  A    between atoms: _100  and  _102
REMARK   38  A    between atoms: _102  and  _103
REMARK   39  A    between atoms: _102  and  _105
REMARK   40  A    between atoms: _105  and  _106
REMARK   41  A    between atoms: _112  and  _113
REMARK   42  A    between atoms: _118  and  _120
REMARK   43  A    between atoms: _120  and  _121
REMARK   44  A    between atoms: _120  and  _123
REMARK   45  A    between atoms: _123  and  _124
REMARK   46  A    between atoms: _124  and  _125
REMARK   47  A    between atoms: _125  and  _126
REMARK   48  A    between atoms: _135  and  _137
REMARK   49  A    between atoms: _137  and  _138
REMARK   50  A    between atoms: _140  and  _142
REMARK   51  A    between atoms: _142  and  _143
REMARK   52  A    between atoms: _142  and  _145
REMARK   53  A    between atoms: _145  and  _146
REMARK   54  A    between atoms: _146  and  _147
REMARK   55  A    between atoms: _150  and  _152
REMARK   56  A    between atoms: _152  and  _153
REMARK   57  A    between atoms: _152  and  _155
REMARK   58  A    between atoms: _155  and  _156
REMARK   59  A    between atoms: _156  and  _157
REMARK   60  A    between atoms: _160  and  _162
REMARK   61  A    between atoms: _162  and  _163
REMARK   62  A    between atoms: _165  and  _167
REMARK   63  A    between atoms: _167  and  _168
REMARK   64  A    between atoms: _171  and  _172
REMARK   65  A    between atoms: _177  and  _179
REMARK   66  A    between atoms: _179  and  _180
REMARK   67  A    between atoms: _179  and  _182
REMARK   68  A    between atoms: _182  and  _183
REMARK   69  A    between atoms: _193  and  _195
REMARK   70  A    between atoms: _195  and  _196
REMARK   71  A    between atoms: _195  and  _198
REMARK   72  A    between atoms: _200  and  _202
REMARK   73  A    between atoms: _202  and  _203
REMARK   74  A    between atoms: _202  and  _205
REMARK   75  A    between atoms: _205  and  _206
REMARK   76  A    between atoms: _212  and  _214
REMARK   77  A    between atoms: _214  and  _215
REMARK   78  A    between atoms: _214  and  _217
REMARK   79  A    between atoms: _217  and  _218
REMARK   80  A    between atoms: _218  and  _219
REMARK   81  A    between atoms: _219  and  _220
REMARK   82  A    between atoms: _229  and  _231
REMARK   83  A    between atoms: _231  and  _232
REMARK   84  A    between atoms: _231  and  _234
REMARK   85  A    between atoms: _234  and  _235
REMARK   86  A    between atoms: _240  and  _241
REMARK   87  A    between atoms: _243  and  _245
REMARK   88  A    between atoms: _245  and  _246
REMARK   89  A    between atoms: _245  and  _248
REMARK   90  A    between atoms: _248  and  _249
REMARK   91  A    between atoms: _249  and  _250
REMARK   92  A    between atoms: _253  and  _255
REMARK   93  A    between atoms: _255  and  _256
REMARK   94  A    between atoms: _255  and  _258
REMARK   95  A    between atoms: _261  and  _263
REMARK   96  A    between atoms: _263  and  _264
REMARK   97  A    between atoms: _263  and  _266
REMARK                            x       y       z     vdW  Elec       q    Type
REMARK                         _______ _______ _______ _____ _____    ______ ____
ROOT
ATOM      1  O   HOH     1      17.235  14.245  30.990  0.00  0.00    +0.000 OA
ENDROOT
TORSDOF 0
REMARK  Name = ../refined-set-2016/5ct2/5ct2_pocket.pdb
REMARK  97 active torsions:
REMARK  status: ('A' for Active; 'I' for Inactive)
REMARK    1  A    between atoms: _1  and  _3
REMARK    2  A    between atoms: _3  and  _4
REMARK    3  A    between atoms: _3  and  _6
REMARK    4  A    between atoms: _6  and  _7
REMARK    5  A    between atoms: _17  and  _19
REMARK    6  A    between atoms: _19  and  _20
REMARK    7  A    between atoms: _19  and  _22
REMARK    8  A    between atoms: _22  and  _23
REMARK    9  A    between atoms: _28  and  _30
REMARK   10  A    between atoms: _30  and  _31
REMARK   11  A    between atoms: _30  and  _33
REMARK   12  A    between atoms: _33  and  _34
REMARK   13  A    between atoms: _34  and  _35
REMARK   14  A    between atoms: _38  and  _40
REMARK   15  A    between atoms: _40  and  _41
REMARK   16  A    between atoms: _40  and  _43
REMARK   17  A    between atoms: _43  and  _44
REMARK   18  A    between atoms: _49  and  _51
REMARK   19  A    between atoms: _51  and  _52
REMARK   20  A    between atoms: _51  and  _54
REMARK   21  A    between atoms: _54  and  _55
REMARK   22  A    between atoms: _57  and  _59
REMARK   23  A    between atoms: _59  and  _60
REMARK   24  A    between atoms: _59  and  _62
REMARK   25  A    between atoms: _62  and  _63
REMARK   26  A    between atoms: _69  and  _71
REMARK   27  A    between atoms: _71  and  _72
REMARK   28  A    between atoms: _71  and  _74
REMARK   29  A    between atoms: _74  and  _75
REMARK   30  A    between atoms: _80  and  _81
REMARK   31  A    between atoms: _83  and  _85
REMARK   32  A    between atoms: _85  and  _86
REMARK   33  A    between atoms: _85  and  _88
REMARK   34  A    between atoms: _88  and  _89
REMARK   35  A    between atoms: _89  and  _90
REMARK   36  A    between atoms: _90  and  _91
REMARK   37  A    between atoms: _100  and  _102
REMARK   38  A    between atoms: _102  and  _103
REMARK   39  A    between atoms: _102  and  _105
REMARK   40  A    between atoms: _105  and  _106
REMARK   41  A    between atoms: _112  and  _113
REMARK   42  A    between atoms: _118  and  _120
REMARK   43  A    between atoms: _120  and  _121
REMARK   44  A    between atoms: _120  and  _123
REMARK   45  A    between atoms: _123  and  _124
REMARK   46  A    between atoms: _124  and  _125
REMARK   47  A    between atoms: _125  and  _126
REMARK   48  A    between atoms: _135  and  _137
REMARK   49  A    between atoms: _137  and  _138
REMARK   50  A    between atoms: _140  and  _142
REMARK   51  A    between atoms: _142  and  _143
REMARK   52  A    between atoms: _142  and  _145
REMARK   53  A    between atoms: _145  and  _146
REMARK   54  A    between atoms: _146  and  _147
REMARK   55  A    between atoms: _150  and  _152
REMARK   56  A    between atoms: _152  and  _153
REMARK   57  A    between atoms: _152  and  _155
REMARK   58  A    between atoms: _155  and  _156
REMARK   59  A    between atoms: _156  and  _157
REMARK   60  A    between atoms: _160  and  _162
REMARK   61  A    between atoms: _162  and  _163
REMARK   62  A    between atoms: _165  and  _167
REMARK   63  A    between atoms: _167  and  _168
REMARK   64  A    between atoms: _171  and  _172
REMARK   65  A    between atoms: _177  and  _179
REMARK   66  A    between atoms: _179  and  _180
REMARK   67  A    between atoms: _179  and  _182
REMARK   68  A    between atoms: _182  and  _183
REMARK   69  A    between atoms: _193  and  _195
REMARK   70  A    between atoms: _195  and  _196
REMARK   71  A    between atoms: _195  and  _198
REMARK   72  A    between atoms: _200  and  _202
REMARK   73  A    between atoms: _202  and  _203
REMARK   74  A    between atoms: _202  and  _205
REMARK   75  A    between atoms: _205  and  _206
REMARK   76  A    between atoms: _212  and  _214
REMARK   77  A    between atoms: _214  and  _215
REMARK   78  A    between atoms: _214  and  _217
REMARK   79  A    between atoms: _217  and  _218
REMARK   80  A    between atoms: _218  and  _219
REMARK   81  A    between atoms: _219  and  _220
REMARK   82  A    between atoms: _229  and  _231
REMARK   83  A    between atoms: _231  and  _232
REMARK   84  A    between atoms: _231  and  _234
REMARK   85  A    between atoms: _234  and  _235
REMARK   86  A    between atoms: _240  and  _241
REMARK   87  A    between atoms: _243  and  _245
REMARK   88  A    between atoms: _245  and  _246
REMARK   89  A    between atoms: _245  and  _248
REMARK   90  A    between atoms: _248  and  _249
REMARK   91  A    between atoms: _249  and  _250
REMARK   92  A    between atoms: _253  and  _255
REMARK   93  A    between atoms: _255  and  _256
REMARK   94  A    between atoms: _255  and  _258
REMARK   95  A    between atoms: _261  and  _263
REMARK   96  A    between atoms: _263  and  _264
REMARK   97  A    between atoms: _263  and  _266
REMARK                            x       y       z     vdW  Elec       q    Type
REMARK                         _______ _______ _______ _____ _____    ______ ____
ROOT
ATOM      1  O   HOH     1      17.280  15.618  26.302  0.00  0.00    +0.000 OA
ENDROOT
TORSDOF 0
REMARK  Name = ../refined-set-2016/5ct2/5ct2_pocket.pdb
REMARK  97 active torsions:
REMARK  status: ('A' for Active; 'I' for Inactive)
REMARK    1  A    between atoms: _1  and  _3
REMARK    2  A    between atoms: _3  and  _4
REMARK    3  A    between atoms: _3  and  _6
REMARK    4  A    between atoms: _6  and  _7
REMARK    5  A    between atoms: _17  and  _19
REMARK    6  A    between atoms: _19  and  _20
REMARK    7  A    between atoms: _19  and  _22
REMARK    8  A    between atoms: _22  and  _23
REMARK    9  A    between atoms: _28  and  _30
REMARK   10  A    between atoms: _30  and  _31
REMARK   11  A    between atoms: _30  and  _33
REMARK   12  A    between atoms: _33  and  _34
REMARK   13  A    between atoms: _34  and  _35
REMARK   14  A    between atoms: _38  and  _40
REMARK   15  A    between atoms: _40  and  _41
REMARK   16  A    between atoms: _40  and  _43
REMARK   17  A    between atoms: _43  and  _44
REMARK   18  A    between atoms: _49  and  _51
REMARK   19  A    between atoms: _51  and  _52
REMARK   20  A    between atoms: _51  and  _54
REMARK   21  A    between atoms: _54  and  _55
REMARK   22  A    between atoms: _57  and  _59
REMARK   23  A    between atoms: _59  and  _60
REMARK   24  A    between atoms: _59  and  _62
REMARK   25  A    between atoms: _62  and  _63
REMARK   26  A    between atoms: _69  and  _71
REMARK   27  A    between atoms: _71  and  _72
REMARK   28  A    between atoms: _71  and  _74
REMARK   29  A    between atoms: _74  and  _75
REMARK   30  A    between atoms: _80  and  _81
REMARK   31  A    between atoms: _83  and  _85
REMARK   32  A    between atoms: _85  and  _86
REMARK   33  A    between atoms: _85  and  _88
REMARK   34  A    between atoms: _88  and  _89
REMARK   35  A    between atoms: _89  and  _90
REMARK   36  A    between atoms: _90  and  _91
REMARK   37  A    between atoms: _100  and  _102
REMARK   38  A    between atoms: _102  and  _103
REMARK   39  A    between atoms: _102  and  _105
REMARK   40  A    between atoms: _105  and  _106
REMARK   41  A    between atoms: _112  and  _113
REMARK   42  A    between atoms: _118  and  _120
REMARK   43  A    between atoms: _120  and  _121
REMARK   44  A    between atoms: _120  and  _123
REMARK   45  A    between atoms: _123  and  _124
REMARK   46  A    between atoms: _124  and  _125
REMARK   47  A    between atoms: _125  and  _126
REMARK   48  A    between atoms: _135  and  _137
REMARK   49  A    between atoms: _137  and  _138
REMARK   50  A    between atoms: _140  and  _142
REMARK   51  A    between atoms: _142  and  _143
REMARK   52  A    between atoms: _142  and  _145
REMARK   53  A    between atoms: _145  and  _146
REMARK   54  A    between atoms: _146  and  _147
REMARK   55  A    between atoms: _150  and  _152
REMARK   56  A    between atoms: _152  and  _153
REMARK   57  A    between atoms: _152  and  _155
REMARK   58  A    between atoms: _155  and  _156
REMARK   59  A    between atoms: _156  and  _157
REMARK   60  A    between atoms: _160  and  _162
REMARK   61  A    between atoms: _162  and  _163
REMARK   62  A    between atoms: _165  and  _167
REMARK   63  A    between atoms: _167  and  _168
REMARK   64  A    between atoms: _171  and  _172
REMARK   65  A    between atoms: _177  and  _179
REMARK   66  A    between atoms: _179  and  _180
REMARK   67  A    between atoms: _179  and  _182
REMARK   68  A    between atoms: _182  and  _183
REMARK   69  A    between atoms: _193  and  _195
REMARK   70  A    between atoms: _195  and  _196
REMARK   71  A    between atoms: _195  and  _198
REMARK   72  A    between atoms: _200  and  _202
REMARK   73  A    between atoms: _202  and  _203
REMARK   74  A    between atoms: _202  and  _205
REMARK   75  A    between atoms: _205  and  _206
REMARK   76  A    between atoms: _212  and  _214
REMARK   77  A    between atoms: _214  and  _215
REMARK   78  A    between atoms: _214  and  _217
REMARK   79  A    between atoms: _217  and  _218
REMARK   80  A    between atoms: _218  and  _219
REMARK   81  A    between atoms: _219  and  _220
REMARK   82  A    between atoms: _229  and  _231
REMARK   83  A    between atoms: _231  and  _232
REMARK   84  A    between atoms: _231  and  _234
REMARK   85  A    between atoms: _234  and  _235
REMARK   86  A    between atoms: _240  and  _241
REMARK   87  A    between atoms: _243  and  _245
REMARK   88  A    between atoms: _245  and  _246
REMARK   89  A    between atoms: _245  and  _248
REMARK   90  A    between atoms: _248  and  _249
REMARK   91  A    between atoms: _249  and  _250
REMARK   92  A    between atoms: _253  and  _255
REMARK   93  A    between atoms: _255  and  _256
REMARK   94  A    between atoms: _255  and  _258
REMARK   95  A    between atoms: _261  and  _263
REMARK   96  A    between atoms: _263  and  _264
REMARK   97  A    between atoms: _263  and  _266
REMARK                            x       y       z     vdW  Elec       q    Type
REMARK                         _______ _______ _______ _____ _____    ______ ____
ROOT
ATOM      1  O   HOH     1       5.483  19.473  26.093  0.00  0.00    +0.000 OA
ENDROOT
TORSDOF 0
REMARK  Name = ../refined-set-2016/5ct2/5ct2_pocket.pdb
REMARK  97 active torsions:
REMARK  status: ('A' for Active; 'I' for Inactive)
REMARK    1  A    between atoms: _1  and  _3
REMARK    2  A    between atoms: _3  and  _4
REMARK    3  A    between atoms: _3  and  _6
REMARK    4  A    between atoms: _6  and  _7
REMARK    5  A    between atoms: _17  and  _19
REMARK    6  A    between atoms: _19  and  _20
REMARK    7  A    between atoms: _19  and  _22
REMARK    8  A    between atoms: _22  and  _23
REMARK    9  A    between atoms: _28  and  _30
REMARK   10  A    between atoms: _30  and  _31
REMARK   11  A    between atoms: _30  and  _33
REMARK   12  A    between atoms: _33  and  _34
REMARK   13  A    between atoms: _34  and  _35
REMARK   14  A    between atoms: _38  and  _40
REMARK   15  A    between atoms: _40  and  _41
REMARK   16  A    between atoms: _40  and  _43
REMARK   17  A    between atoms: _43  and  _44
REMARK   18  A    between atoms: _49  and  _51
REMARK   19  A    between atoms: _51  and  _52
REMARK   20  A    between atoms: _51  and  _54
REMARK   21  A    between atoms: _54  and  _55
REMARK   22  A    between atoms: _57  and  _59
REMARK   23  A    between atoms: _59  and  _60
REMARK   24  A    between atoms: _59  and  _62
REMARK   25  A    between atoms: _62  and  _63
REMARK   26  A    between atoms: _69  and  _71
REMARK   27  A    between atoms: _71  and  _72
REMARK   28  A    between atoms: _71  and  _74
REMARK   29  A    between atoms: _74  and  _75
REMARK   30  A    between atoms: _80  and  _81
REMARK   31  A    between atoms: _83  and  _85
REMARK   32  A    between atoms: _85  and  _86
REMARK   33  A    between atoms: _85  and  _88
REMARK   34  A    between atoms: _88  and  _89
REMARK   35  A    between atoms: _89  and  _90
REMARK   36  A    between atoms: _90  and  _91
REMARK   37  A    between atoms: _100  and  _102
REMARK   38  A    between atoms: _102  and  _103
REMARK   39  A    between atoms: _102  and  _105
REMARK   40  A    between atoms: _105  and  _106
REMARK   41  A    between atoms: _112  and  _113
REMARK   42  A    between atoms: _118  and  _120
REMARK   43  A    between atoms: _120  and  _121
REMARK   44  A    between atoms: _120  and  _123
REMARK   45  A    between atoms: _123  and  _124
REMARK   46  A    between atoms: _124  and  _125
REMARK   47  A    between atoms: _125  and  _126
REMARK   48  A    between atoms: _135  and  _137
REMARK   49  A    between atoms: _137  and  _138
REMARK   50  A    between atoms: _140  and  _142
REMARK   51  A    between atoms: _142  and  _143
REMARK   52  A    between atoms: _142  and  _145
REMARK   53  A    between atoms: _145  and  _146
REMARK   54  A    between atoms: _146  and  _147
REMARK   55  A    between atoms: _150  and  _152
REMARK   56  A    between atoms: _152  and  _153
REMARK   57  A    between atoms: _152  and  _155
REMARK   58  A    between atoms: _155  and  _156
REMARK   59  A    between atoms: _156  and  _157
REMARK   60  A    between atoms: _160  and  _162
REMARK   61  A    between atoms: _162  and  _163
REMARK   62  A    between atoms: _165  and  _167
REMARK   63  A    between atoms: _167  and  _168
REMARK   64  A    between atoms: _171  and  _172
REMARK   65  A    between atoms: _177  and  _179
REMARK   66  A    between atoms: _179  and  _180
REMARK   67  A    between atoms: _179  and  _182
REMARK   68  A    between atoms: _182  and  _183
REMARK   69  A    between atoms: _193  and  _195
REMARK   70  A    between atoms: _195  and  _196
REMARK   71  A    between atoms: _195  and  _198
REMARK   72  A    between atoms: _200  and  _202
REMARK   73  A    between atoms: _202  and  _203
REMARK   74  A    between atoms: _202  and  _205
REMARK   75  A    between atoms: _205  and  _206
REMARK   76  A    between atoms: _212  and  _214
REMARK   77  A    between atoms: _214  and  _215
REMARK   78  A    between atoms: _214  and  _217
REMARK   79  A    between atoms: _217  and  _218
REMARK   80  A    between atoms: _218  and  _219
REMARK   81  A    between atoms: _219  and  _220
REMARK   82  A    between atoms: _229  and  _231
REMARK   83  A    between atoms: _231  and  _232
REMARK   84  A    between atoms: _231  and  _234
REMARK   85  A    between atoms: _234  and  _235
REMARK   86  A    between atoms: _240  and  _241
REMARK   87  A    between atoms: _243  and  _245
REMARK   88  A    between atoms: _245  and  _246
REMARK   89  A    between atoms: _245  and  _248
REMARK   90  A    between atoms: _248  and  _249
REMARK   91  A    between atoms: _249  and  _250
REMARK   92  A    between atoms: _253  and  _255
REMARK   93  A    between atoms: _255  and  _256
REMARK   94  A    between atoms: _255  and  _258
REMARK   95  A    between atoms: _261  and  _263
REMARK   96  A    between atoms: _263  and  _264
REMARK   97  A    between atoms: _263  and  _266
REMARK                            x       y       z     vdW  Elec       q    Type
REMARK                         _______ _______ _______ _____ _____    ______ ____
ROOT
ATOM      1  O   HOH     1       8.424  18.855  24.928  0.00  0.00    +0.000 OA
ENDROOT
TORSDOF 0
REMARK  Name = ../refined-set-2016/5ct2/5ct2_pocket.pdb
REMARK  97 active torsions:
REMARK  status: ('A' for Active; 'I' for Inactive)
REMARK    1  A    between atoms: _1  and  _3
REMARK    2  A    between atoms: _3  and  _4
REMARK    3  A    between atoms: _3  and  _6
REMARK    4  A    between atoms: _6  and  _7
REMARK    5  A    between atoms: _17  and  _19
REMARK    6  A    between atoms: _19  and  _20
REMARK    7  A    between atoms: _19  and  _22
REMARK    8  A    between atoms: _22  and  _23
REMARK    9  A    between atoms: _28  and  _30
REMARK   10  A    between atoms: _30  and  _31
REMARK   11  A    between atoms: _30  and  _33
REMARK   12  A    between atoms: _33  and  _34
REMARK   13  A    between atoms: _34  and  _35
REMARK   14  A    between atoms: _38  and  _40
REMARK   15  A    between atoms: _40  and  _41
REMARK   16  A    between atoms: _40  and  _43
REMARK   17  A    between atoms: _43  and  _44
REMARK   18  A    between atoms: _49  and  _51
REMARK   19  A    between atoms: _51  and  _52
REMARK   20  A    between atoms: _51  and  _54
REMARK   21  A    between atoms: _54  and  _55
REMARK   22  A    between atoms: _57  and  _59
REMARK   23  A    between atoms: _59  and  _60
REMARK   24  A    between atoms: _59  and  _62
REMARK   25  A    between atoms: _62  and  _63
REMARK   26  A    between atoms: _69  and  _71
REMARK   27  A    between atoms: _71  and  _72
REMARK   28  A    between atoms: _71  and  _74
REMARK   29  A    between atoms: _74  and  _75
REMARK   30  A    between atoms: _80  and  _81
REMARK   31  A    between atoms: _83  and  _85
REMARK   32  A    between atoms: _85  and  _86
REMARK   33  A    between atoms: _85  and  _88
REMARK   34  A    between atoms: _88  and  _89
REMARK   35  A    between atoms: _89  and  _90
REMARK   36  A    between atoms: _90  and  _91
REMARK   37  A    between atoms: _100  and  _102
REMARK   38  A    between atoms: _102  and  _103
REMARK   39  A    between atoms: _102  and  _105
REMARK   40  A    between atoms: _105  and  _106
REMARK   41  A    between atoms: _112  and  _113
REMARK   42  A    between atoms: _118  and  _120
REMARK   43  A    between atoms: _120  and  _121
REMARK   44  A    between atoms: _120  and  _123
REMARK   45  A    between atoms: _123  and  _124
REMARK   46  A    between atoms: _124  and  _125
REMARK   47  A    between atoms: _125  and  _126
REMARK   48  A    between atoms: _135  and  _137
REMARK   49  A    between atoms: _137  and  _138
REMARK   50  A    between atoms: _140  and  _142
REMARK   51  A    between atoms: _142  and  _143
REMARK   52  A    between atoms: _142  and  _145
REMARK   53  A    between atoms: _145  and  _146
REMARK   54  A    between atoms: _146  and  _147
REMARK   55  A    between atoms: _150  and  _152
REMARK   56  A    between atoms: _152  and  _153
REMARK   57  A    between atoms: _152  and  _155
REMARK   58  A    between atoms: _155  and  _156
REMARK   59  A    between atoms: _156  and  _157
REMARK   60  A    between atoms: _160  and  _162
REMARK   61  A    between atoms: _162  and  _163
REMARK   62  A    between atoms: _165  and  _167
REMARK   63  A    between atoms: _167  and  _168
REMARK   64  A    between atoms: _171  and  _172
REMARK   65  A    between atoms: _177  and  _179
REMARK   66  A    between atoms: _179  and  _180
REMARK   67  A    between atoms: _179  and  _182
REMARK   68  A    between atoms: _182  and  _183
REMARK   69  A    between atoms: _193  and  _195
REMARK   70  A    between atoms: _195  and  _196
REMARK   71  A    between atoms: _195  and  _198
REMARK   72  A    between atoms: _200  and  _202
REMARK   73  A    between atoms: _202  and  _203
REMARK   74  A    between atoms: _202  and  _205
REMARK   75  A    between atoms: _205  and  _206
REMARK   76  A    between atoms: _212  and  _214
REMARK   77  A    between atoms: _214  and  _215
REMARK   78  A    between atoms: _214  and  _217
REMARK   79  A    between atoms: _217  and  _218
REMARK   80  A    between atoms: _218  and  _219
REMARK   81  A    between atoms: _219  and  _220
REMARK   82  A    between atoms: _229  and  _231
REMARK   83  A    between atoms: _231  and  _232
REMARK   84  A    between atoms: _231  and  _234
REMARK   85  A    between atoms: _234  and  _235
REMARK   86  A    between atoms: _240  and  _241
REMARK   87  A    between atoms: _243  and  _245
REMARK   88  A    between atoms: _245  and  _246
REMARK   89  A    between atoms: _245  and  _248
REMARK   90  A    between atoms: _248  and  _249
REMARK   91  A    between atoms: _249  and  _250
REMARK   92  A    between atoms: _253  and  _255
REMARK   93  A    between atoms: _255  and  _256
REMARK   94  A    between atoms: _255  and  _258
REMARK   95  A    between atoms: _261  and  _263
REMARK   96  A    between atoms: _263  and  _264
REMARK   97  A    between atoms: _263  and  _266
REMARK                            x       y       z     vdW  Elec       q    Type
REMARK                         _______ _______ _______ _____ _____    ______ ____
ROOT
ATOM      1  O   HOH     1      13.508   8.450  26.783  0.00  0.00    +0.000 OA
ENDROOT
TORSDOF 0
REMARK  Name = ../refined-set-2016/5ct2/5ct2_pocket.pdb
REMARK  97 active torsions:
REMARK  status: ('A' for Active; 'I' for Inactive)
REMARK    1  A    between atoms: _1  and  _3
REMARK    2  A    between atoms: _3  and  _4
REMARK    3  A    between atoms: _3  and  _6
REMARK    4  A    between atoms: _6  and  _7
REMARK    5  A    between atoms: _17  and  _19
REMARK    6  A    between atoms: _19  and  _20
REMARK    7  A    between atoms: _19  and  _22
REMARK    8  A    between atoms: _22  and  _23
REMARK    9  A    between atoms: _28  and  _30
REMARK   10  A    between atoms: _30  and  _31
REMARK   11  A    between atoms: _30  and  _33
REMARK   12  A    between atoms: _33  and  _34
REMARK   13  A    between atoms: _34  and  _35
REMARK   14  A    between atoms: _38  and  _40
REMARK   15  A    between atoms: _40  and  _41
REMARK   16  A    between atoms: _40  and  _43
REMARK   17  A    between atoms: _43  and  _44
REMARK   18  A    between atoms: _49  and  _51
REMARK   19  A    between atoms: _51  and  _52
REMARK   20  A    between atoms: _51  and  _54
REMARK   21  A    between atoms: _54  and  _55
REMARK   22  A    between atoms: _57  and  _59
REMARK   23  A    between atoms: _59  and  _60
REMARK   24  A    between atoms: _59  and  _62
REMARK   25  A    between atoms: _62  and  _63
REMARK   26  A    between atoms: _69  and  _71
REMARK   27  A    between atoms: _71  and  _72
REMARK   28  A    between atoms: _71  and  _74
REMARK   29  A    between atoms: _74  and  _75
REMARK   30  A    between atoms: _80  and  _81
REMARK   31  A    between atoms: _83  and  _85
REMARK   32  A    between atoms: _85  and  _86
REMARK   33  A    between atoms: _85  and  _88
REMARK   34  A    between atoms: _88  and  _89
REMARK   35  A    between atoms: _89  and  _90
REMARK   36  A    between atoms: _90  and  _91
REMARK   37  A    between atoms: _100  and  _102
REMARK   38  A    between atoms: _102  and  _103
REMARK   39  A    between atoms: _102  and  _105
REMARK   40  A    between atoms: _105  and  _106
REMARK   41  A    between atoms: _112  and  _113
REMARK   42  A    between atoms: _118  and  _120
REMARK   43  A    between atoms: _120  and  _121
REMARK   44  A    between atoms: _120  and  _123
REMARK   45  A    between atoms: _123  and  _124
REMARK   46  A    between atoms: _124  and  _125
REMARK   47  A    between atoms: _125  and  _126
REMARK   48  A    between atoms: _135  and  _137
REMARK   49  A    between atoms: _137  and  _138
REMARK   50  A    between atoms: _140  and  _142
REMARK   51  A    between atoms: _142  and  _143
REMARK   52  A    between atoms: _142  and  _145
REMARK   53  A    between atoms: _145  and  _146
REMARK   54  A    between atoms: _146  and  _147
REMARK   55  A    between atoms: _150  and  _152
REMARK   56  A    between atoms: _152  and  _153
REMARK   57  A    between atoms: _152  and  _155
REMARK   58  A    between atoms: _155  and  _156
REMARK   59  A    between atoms: _156  and  _157
REMARK   60  A    between atoms: _160  and  _162
REMARK   61  A    between atoms: _162  and  _163
REMARK   62  A    between atoms: _165  and  _167
REMARK   63  A    between atoms: _167  and  _168
REMARK   64  A    between atoms: _171  and  _172
REMARK   65  A    between atoms: _177  and  _179
REMARK   66  A    between atoms: _179  and  _180
REMARK   67  A    between atoms: _179  and  _182
REMARK   68  A    between atoms: _182  and  _183
REMARK   69  A    between atoms: _193  and  _195
REMARK   70  A    between atoms: _195  and  _196
REMARK   71  A    between atoms: _195  and  _198
REMARK   72  A    between atoms: _200  and  _202
REMARK   73  A    between atoms: _202  and  _203
REMARK   74  A    between atoms: _202  and  _205
REMARK   75  A    between atoms: _205  and  _206
REMARK   76  A    between atoms: _212  and  _214
REMARK   77  A    between atoms: _214  and  _215
REMARK   78  A    between atoms: _214  and  _217
REMARK   79  A    between atoms: _217  and  _218
REMARK   80  A    between atoms: _218  and  _219
REMARK   81  A    between atoms: _219  and  _220
REMARK   82  A    between atoms: _229  and  _231
REMARK   83  A    between atoms: _231  and  _232
REMARK   84  A    between atoms: _231  and  _234
REMARK   85  A    between atoms: _234  and  _235
REMARK   86  A    between atoms: _240  and  _241
REMARK   87  A    between atoms: _243  and  _245
REMARK   88  A    between atoms: _245  and  _246
REMARK   89  A    between atoms: _245  and  _248
REMARK   90  A    between atoms: _248  and  _249
REMARK   91  A    between atoms: _249  and  _250
REMARK   92  A    between atoms: _253  and  _255
REMARK   93  A    between atoms: _255  and  _256
REMARK   94  A    between atoms: _255  and  _258
REMARK   95  A    between atoms: _261  and  _263
REMARK   96  A    between atoms: _263  and  _264
REMARK   97  A    between atoms: _263  and  _266
REMARK                            x       y       z     vdW  Elec       q    Type
REMARK                         _______ _______ _______ _____ _____    ______ ____
ROOT
ATOM      1  O   HOH     1       5.933  16.784  26.830  0.00  0.00    +0.000 OA
ENDROOT
TORSDOF 0
REMARK  Name = ../refined-set-2016/5ct2/5ct2_pocket.pdb
REMARK  97 active torsions:
REMARK  status: ('A' for Active; 'I' for Inactive)
REMARK    1  A    between atoms: _1  and  _3
REMARK    2  A    between atoms: _3  and  _4
REMARK    3  A    between atoms: _3  and  _6
REMARK    4  A    between atoms: _6  and  _7
REMARK    5  A    between atoms: _17  and  _19
REMARK    6  A    between atoms: _19  and  _20
REMARK    7  A    between atoms: _19  and  _22
REMARK    8  A    between atoms: _22  and  _23
REMARK    9  A    between atoms: _28  and  _30
REMARK   10  A    between atoms: _30  and  _31
REMARK   11  A    between atoms: _30  and  _33
REMARK   12  A    between atoms: _33  and  _34
REMARK   13  A    between atoms: _34  and  _35
REMARK   14  A    between atoms: _38  and  _40
REMARK   15  A    between atoms: _40  and  _41
REMARK   16  A    between atoms: _40  and  _43
REMARK   17  A    between atoms: _43  and  _44
REMARK   18  A    between atoms: _49  and  _51
REMARK   19  A    between atoms: _51  and  _52
REMARK   20  A    between atoms: _51  and  _54
REMARK   21  A    between atoms: _54  and  _55
REMARK   22  A    between atoms: _57  and  _59
REMARK   23  A    between atoms: _59  and  _60
REMARK   24  A    between atoms: _59  and  _62
REMARK   25  A    between atoms: _62  and  _63
REMARK   26  A    between atoms: _69  and  _71
REMARK   27  A    between atoms: _71  and  _72
REMARK   28  A    between atoms: _71  and  _74
REMARK   29  A    between atoms: _74  and  _75
REMARK   30  A    between atoms: _80  and  _81
REMARK   31  A    between atoms: _83  and  _85
REMARK   32  A    between atoms: _85  and  _86
REMARK   33  A    between atoms: _85  and  _88
REMARK   34  A    between atoms: _88  and  _89
REMARK   35  A    between atoms: _89  and  _90
REMARK   36  A    between atoms: _90  and  _91
REMARK   37  A    between atoms: _100  and  _102
REMARK   38  A    between atoms: _102  and  _103
REMARK   39  A    between atoms: _102  and  _105
REMARK   40  A    between atoms: _105  and  _106
REMARK   41  A    between atoms: _112  and  _113
REMARK   42  A    between atoms: _118  and  _120
REMARK   43  A    between atoms: _120  and  _121
REMARK   44  A    between atoms: _120  and  _123
REMARK   45  A    between atoms: _123  and  _124
REMARK   46  A    between atoms: _124  and  _125
REMARK   47  A    between atoms: _125  and  _126
REMARK   48  A    between atoms: _135  and  _137
REMARK   49  A    between atoms: _137  and  _138
REMARK   50  A    between atoms: _140  and  _142
REMARK   51  A    between atoms: _142  and  _143
REMARK   52  A    between atoms: _142  and  _145
REMARK   53  A    between atoms: _145  and  _146
REMARK   54  A    between atoms: _146  and  _147
REMARK   55  A    between atoms: _150  and  _152
REMARK   56  A    between atoms: _152  and  _153
REMARK   57  A    between atoms: _152  and  _155
REMARK   58  A    between atoms: _155  and  _156
REMARK   59  A    between atoms: _156  and  _157
REMARK   60  A    between atoms: _160  and  _162
REMARK   61  A    between atoms: _162  and  _163
REMARK   62  A    between atoms: _165  and  _167
REMARK   63  A    between atoms: _167  and  _168
REMARK   64  A    between atoms: _171  and  _172
REMARK   65  A    between atoms: _177  and  _179
REMARK   66  A    between atoms: _179  and  _180
REMARK   67  A    between atoms: _179  and  _182
REMARK   68  A    between atoms: _182  and  _183
REMARK   69  A    between atoms: _193  and  _195
REMARK   70  A    between atoms: _195  and  _196
REMARK   71  A    between atoms: _195  and  _198
REMARK   72  A    between atoms: _200  and  _202
REMARK   73  A    between atoms: _202  and  _203
REMARK   74  A    between atoms: _202  and  _205
REMARK   75  A    between atoms: _205  and  _206
REMARK   76  A    between atoms: _212  and  _214
REMARK   77  A    between atoms: _214  and  _215
REMARK   78  A    between atoms: _214  and  _217
REMARK   79  A    between atoms: _217  and  _218
REMARK   80  A    between atoms: _218  and  _219
REMARK   81  A    between atoms: _219  and  _220
REMARK   82  A    between atoms: _229  and  _231
REMARK   83  A    between atoms: _231  and  _232
REMARK   84  A    between atoms: _231  and  _234
REMARK   85  A    between atoms: _234  and  _235
REMARK   86  A    between atoms: _240  and  _241
REMARK   87  A    between atoms: _243  and  _245
REMARK   88  A    between atoms: _245  and  _246
REMARK   89  A    between atoms: _245  and  _248
REMARK   90  A    between atoms: _248  and  _249
REMARK   91  A    between atoms: _249  and  _250
REMARK   92  A    between atoms: _253  and  _255
REMARK   93  A    between atoms: _255  and  _256
REMARK   94  A    between atoms: _255  and  _258
REMARK   95  A    between atoms: _261  and  _263
REMARK   96  A    between atoms: _263  and  _264
REMARK   97  A    between atoms: _263  and  _266
REMARK                            x       y       z     vdW  Elec       q    Type
REMARK                         _______ _______ _______ _____ _____    ______ ____
ROOT
ATOM      1  O   HOH     1       7.829  12.497  23.900  0.00  0.00    +0.000 OA
ENDROOT
TORSDOF 0
REMARK  Name = ../refined-set-2016/5ct2/5ct2_pocket.pdb
REMARK  97 active torsions:
REMARK  status: ('A' for Active; 'I' for Inactive)
REMARK    1  A    between atoms: _1  and  _3
REMARK    2  A    between atoms: _3  and  _4
REMARK    3  A    between atoms: _3  and  _6
REMARK    4  A    between atoms: _6  and  _7
REMARK    5  A    between atoms: _17  and  _19
REMARK    6  A    between atoms: _19  and  _20
REMARK    7  A    between atoms: _19  and  _22
REMARK    8  A    between atoms: _22  and  _23
REMARK    9  A    between atoms: _28  and  _30
REMARK   10  A    between atoms: _30  and  _31
REMARK   11  A    between atoms: _30  and  _33
REMARK   12  A    between atoms: _33  and  _34
REMARK   13  A    between atoms: _34  and  _35
REMARK   14  A    between atoms: _38  and  _40
REMARK   15  A    between atoms: _40  and  _41
REMARK   16  A    between atoms: _40  and  _43
REMARK   17  A    between atoms: _43  and  _44
REMARK   18  A    between atoms: _49  and  _51
REMARK   19  A    between atoms: _51  and  _52
REMARK   20  A    between atoms: _51  and  _54
REMARK   21  A    between atoms: _54  and  _55
REMARK   22  A    between atoms: _57  and  _59
REMARK   23  A    between atoms: _59  and  _60
REMARK   24  A    between atoms: _59  and  _62
REMARK   25  A    between atoms: _62  and  _63
REMARK   26  A    between atoms: _69  and  _71
REMARK   27  A    between atoms: _71  and  _72
REMARK   28  A    between atoms: _71  and  _74
REMARK   29  A    between atoms: _74  and  _75
REMARK   30  A    between atoms: _80  and  _81
REMARK   31  A    between atoms: _83  and  _85
REMARK   32  A    between atoms: _85  and  _86
REMARK   33  A    between atoms: _85  and  _88
REMARK   34  A    between atoms: _88  and  _89
REMARK   35  A    between atoms: _89  and  _90
REMARK   36  A    between atoms: _90  and  _91
REMARK   37  A    between atoms: _100  and  _102
REMARK   38  A    between atoms: _102  and  _103
REMARK   39  A    between atoms: _102  and  _105
REMARK   40  A    between atoms: _105  and  _106
REMARK   41  A    between atoms: _112  and  _113
REMARK   42  A    between atoms: _118  and  _120
REMARK   43  A    between atoms: _120  and  _121
REMARK   44  A    between atoms: _120  and  _123
REMARK   45  A    between atoms: _123  and  _124
REMARK   46  A    between atoms: _124  and  _125
REMARK   47  A    between atoms: _125  and  _126
REMARK   48  A    between atoms: _135  and  _137
REMARK   49  A    between atoms: _137  and  _138
REMARK   50  A    between atoms: _140  and  _142
REMARK   51  A    between atoms: _142  and  _143
REMARK   52  A    between atoms: _142  and  _145
REMARK   53  A    between atoms: _145  and  _146
REMARK   54  A    between atoms: _146  and  _147
REMARK   55  A    between atoms: _150  and  _152
REMARK   56  A    between atoms: _152  and  _153
REMARK   57  A    between atoms: _152  and  _155
REMARK   58  A    between atoms: _155  and  _156
REMARK   59  A    between atoms: _156  and  _157
REMARK   60  A    between atoms: _160  and  _162
REMARK   61  A    between atoms: _162  and  _163
REMARK   62  A    between atoms: _165  and  _167
REMARK   63  A    between atoms: _167  and  _168
REMARK   64  A    between atoms: _171  and  _172
REMARK   65  A    between atoms: _177  and  _179
REMARK   66  A    between atoms: _179  and  _180
REMARK   67  A    between atoms: _179  and  _182
REMARK   68  A    between atoms: _182  and  _183
REMARK   69  A    between atoms: _193  and  _195
REMARK   70  A    between atoms: _195  and  _196
REMARK   71  A    between atoms: _195  and  _198
REMARK   72  A    between atoms: _200  and  _202
REMARK   73  A    between atoms: _202  and  _203
REMARK   74  A    between atoms: _202  and  _205
REMARK   75  A    between atoms: _205  and  _206
REMARK   76  A    between atoms: _212  and  _214
REMARK   77  A    between atoms: _214  and  _215
REMARK   78  A    between atoms: _214  and  _217
REMARK   79  A    between atoms: _217  and  _218
REMARK   80  A    between atoms: _218  and  _219
REMARK   81  A    between atoms: _219  and  _220
REMARK   82  A    between atoms: _229  and  _231
REMARK   83  A    between atoms: _231  and  _232
REMARK   84  A    between atoms: _231  and  _234
REMARK   85  A    between atoms: _234  and  _235
REMARK   86  A    between atoms: _240  and  _241
REMARK   87  A    between atoms: _243  and  _245
REMARK   88  A    between atoms: _245  and  _246
REMARK   89  A    between atoms: _245  and  _248
REMARK   90  A    between atoms: _248  and  _249
REMARK   91  A    between atoms: _249  and  _250
REMARK   92  A    between atoms: _253  and  _255
REMARK   93  A    between atoms: _255  and  _256
REMARK   94  A    between atoms: _255  and  _258
REMARK   95  A    between atoms: _261  and  _263
REMARK   96  A    between atoms: _263  and  _264
REMARK   97  A    between atoms: _263  and  _266
REMARK                            x       y       z     vdW  Elec       q    Type
REMARK                         _______ _______ _______ _____ _____    ______ ____
ROOT
ATOM      1  O   HOH     1      12.788  21.231  37.634  0.00  0.00    +0.000 OA
ENDROOT
TORSDOF 0
