REMARK  Name = ../refined-set-2016/1nc1/1nc1_pocket.pdb
REMARK  219 active torsions:
REMARK  status: ('A' for Active; 'I' for Inactive)
REMARK    1  A    between atoms: _1  and  _3
REMARK    2  A    between atoms: _3  and  _4
REMARK    3  A    between atoms: _6  and  _8
REMARK    4  A    between atoms: _8  and  _9
REMARK    5  A    between atoms: _12  and  _14
REMARK    6  A    between atoms: _14  and  _15
REMARK    7  A    between atoms: _14  and  _17
REMARK    8  A    between atoms: _17  and  _18
REMARK    9  A    between atoms: _18  and  _19
REMARK   10  A    between atoms: _21  and  _23
REMARK   11  A    between atoms: _23  and  _24
REMARK   12  A    between atoms: _23  and  _26
REMARK   13  A    between atoms: _26  and  _27
REMARK   14  A    between atoms: _27  and  _28
REMARK   15  A    between atoms: _31  and  _33
REMARK   16  A    between atoms: _33  and  _34
REMARK   17  A    between atoms: _33  and  _36
REMARK   18  A    between atoms: _36  and  _37
REMARK   19  A    between atoms: _37  and  _38
REMARK   20  A    between atoms: _41  and  _43
REMARK   21  A    between atoms: _43  and  _44
REMARK   22  A    between atoms: _43  and  _46
REMARK   23  A    between atoms: _46  and  _47
REMARK   24  A    between atoms: _49  and  _51
REMARK   25  A    between atoms: _51  and  _52
REMARK   26  A    between atoms: _54  and  _56
REMARK   27  A    between atoms: _56  and  _57
REMARK   28  A    between atoms: _56  and  _59
REMARK   29  A    between atoms: _59  and  _60
REMARK   30  A    between atoms: _63  and  _65
REMARK   31  A    between atoms: _65  and  _66
REMARK   32  A    between atoms: _68  and  _70
REMARK   33  A    between atoms: _70  and  _71
REMARK   34  A    between atoms: _70  and  _73
REMARK   35  A    between atoms: _73  and  _74
REMARK   36  A    between atoms: _74  and  _75
REMARK   37  A    between atoms: _75  and  _76
REMARK   38  A    between atoms: _76  and  _77
REMARK   39  A    between atoms: _81  and  _83
REMARK   40  A    between atoms: _83  and  _84
REMARK   41  A    between atoms: _87  and  _89
REMARK   42  A    between atoms: _89  and  _90
REMARK   43  A    between atoms: _93  and  _95
REMARK   44  A    between atoms: _95  and  _96
REMARK   45  A    between atoms: _95  and  _98
REMARK   46  A    between atoms: _98  and  _99
REMARK   47  A    between atoms: _104  and  _106
REMARK   48  A    between atoms: _106  and  _107
REMARK   49  A    between atoms: _106  and  _109
REMARK   50  A    between atoms: _109  and  _110
REMARK   51  A    between atoms: _113  and  _115
REMARK   52  A    between atoms: _115  and  _116
REMARK   53  A    between atoms: _118  and  _120
REMARK   54  A    between atoms: _120  and  _121
REMARK   55  A    between atoms: _120  and  _123
REMARK   56  A    between atoms: _123  and  _124
REMARK   57  A    between atoms: _126  and  _128
REMARK   58  A    between atoms: _128  and  _129
REMARK   59  A    between atoms: _132  and  _134
REMARK   60  A    between atoms: _134  and  _135
REMARK   61  A    between atoms: _137  and  _139
REMARK   62  A    between atoms: _139  and  _140
REMARK   63  A    between atoms: _142  and  _144
REMARK   64  A    between atoms: _144  and  _145
REMARK   65  A    between atoms: _144  and  _147
REMARK   66  A    between atoms: _147  and  _148
REMARK   67  A    between atoms: _151  and  _153
REMARK   68  A    between atoms: _153  and  _154
REMARK   69  A    between atoms: _153  and  _156
REMARK   70  A    between atoms: _156  and  _157
REMARK   71  A    between atoms: _162  and  _164
REMARK   72  A    between atoms: _164  and  _165
REMARK   73  A    between atoms: _164  and  _167
REMARK   74  A    between atoms: _167  and  _168
REMARK   75  A    between atoms: _171  and  _173
REMARK   76  A    between atoms: _173  and  _174
REMARK   77  A    between atoms: _173  and  _176
REMARK   78  A    between atoms: _179  and  _181
REMARK   79  A    between atoms: _181  and  _182
REMARK   80  A    between atoms: _181  and  _184
REMARK   81  A    between atoms: _184  and  _185
REMARK   82  A    between atoms: _187  and  _189
REMARK   83  A    between atoms: _189  and  _190
REMARK   84  A    between atoms: _192  and  _194
REMARK   85  A    between atoms: _194  and  _195
REMARK   86  A    between atoms: _194  and  _197
REMARK   87  A    between atoms: _197  and  _198
REMARK   88  A    between atoms: _201  and  _203
REMARK   89  A    between atoms: _203  and  _204
REMARK   90  A    between atoms: _207  and  _209
REMARK   91  A    between atoms: _209  and  _210
REMARK   92  A    between atoms: _209  and  _212
REMARK   93  A    between atoms: _212  and  _213
REMARK   94  A    between atoms: _219  and  _221
REMARK   95  A    between atoms: _221  and  _222
REMARK   96  A    between atoms: _221  and  _224
REMARK   97  A    between atoms: _224  and  _225
REMARK   98  A    between atoms: _228  and  _230
REMARK   99  A    between atoms: _230  and  _231
REMARK  100  A    between atoms: _230  and  _233
REMARK  101  A    between atoms: _233  and  _234
REMARK  102  A    between atoms: _239  and  _241
REMARK  103  A    between atoms: _241  and  _242
REMARK  104  A    between atoms: _244  and  _246
REMARK  105  A    between atoms: _246  and  _247
REMARK  106  A    between atoms: _246  and  _249
REMARK  107  A    between atoms: _249  and  _250
REMARK  108  A    between atoms: _253  and  _255
REMARK  109  A    between atoms: _255  and  _256
REMARK  110  A    between atoms: _255  and  _258
REMARK  111  A    between atoms: _258  and  _259
REMARK  112  A    between atoms: _262  and  _264
REMARK  113  A    between atoms: _264  and  _265
REMARK  114  A    between atoms: _268  and  _270
REMARK  115  A    between atoms: _270  and  _271
REMARK  116  A    between atoms: _270  and  _273
REMARK  117  A    between atoms: _276  and  _278
REMARK  118  A    between atoms: _278  and  _279
REMARK  119  A    between atoms: _278  and  _281
REMARK  120  A    between atoms: _281  and  _282
REMARK  121  A    between atoms: _282  and  _283
REMARK  122  A    between atoms: _286  and  _288
REMARK  123  A    between atoms: _288  and  _289
REMARK  124  A    between atoms: _288  and  _291
REMARK  125  A    between atoms: _291  and  _292
REMARK  126  A    between atoms: _292  and  _293
REMARK  127  A    between atoms: _295  and  _297
REMARK  128  A    between atoms: _297  and  _298
REMARK  129  A    between atoms: _297  and  _300
REMARK  130  A    between atoms: _300  and  _301
REMARK  131  A    between atoms: _301  and  _302
REMARK  132  A    between atoms: _305  and  _307
REMARK  133  A    between atoms: _307  and  _308
REMARK  134  A    between atoms: _311  and  _313
REMARK  135  A    between atoms: _313  and  _314
REMARK  136  A    between atoms: _313  and  _316
REMARK  137  A    between atoms: _316  and  _317
REMARK  138  A    between atoms: _320  and  _322
REMARK  139  A    between atoms: _322  and  _323
REMARK  140  A    between atoms: _322  and  _325
REMARK  141  A    between atoms: _325  and  _326
REMARK  142  A    between atoms: _329  and  _331
REMARK  143  A    between atoms: _331  and  _332
REMARK  144  A    between atoms: _331  and  _334
REMARK  145  A    between atoms: _334  and  _335
REMARK  146  A    between atoms: _335  and  _336
REMARK  147  A    between atoms: _336  and  _337
REMARK  148  A    between atoms: _346  and  _348
REMARK  149  A    between atoms: _348  and  _349
REMARK  150  A    between atoms: _352  and  _354
REMARK  151  A    between atoms: _354  and  _355
REMARK  152  A    between atoms: _354  and  _357
REMARK  153  A    between atoms: _357  and  _358
REMARK  154  A    between atoms: _361  and  _363
REMARK  155  A    between atoms: _363  and  _364
REMARK  156  A    between atoms: _363  and  _366
REMARK  157  A    between atoms: _366  and  _367
REMARK  158  A    between atoms: _369  and  _371
REMARK  159  A    between atoms: _371  and  _372
REMARK  160  A    between atoms: _371  and  _374
REMARK  161  A    between atoms: _374  and  _375
REMARK  162  A    between atoms: _378  and  _380
REMARK  163  A    between atoms: _380  and  _381
REMARK  164  A    between atoms: _380  and  _383
REMARK  165  A    between atoms: _386  and  _388
REMARK  166  A    between atoms: _388  and  _389
REMARK  167  A    between atoms: _392  and  _394
REMARK  168  A    between atoms: _394  and  _395
REMARK  169  A    between atoms: _394  and  _397
REMARK  170  A    between atoms: _397  and  _398
REMARK  171  A    between atoms: _401  and  _403
REMARK  172  A    between atoms: _403  and  _404
REMARK  173  A    between atoms: _403  and  _406
REMARK  174  A    between atoms: _406  and  _407
REMARK  175  A    between atoms: _409  and  _411
REMARK  176  A    between atoms: _411  and  _412
REMARK  177  A    between atoms: _411  and  _414
REMARK  178  A    between atoms: _414  and  _415
REMARK  179  A    between atoms: _420  and  _422
REMARK  180  A    between atoms: _422  and  _423
REMARK  181  A    between atoms: _422  and  _425
REMARK  182  A    between atoms: _425  and  _426
REMARK  183  A    between atoms: _428  and  _430
REMARK  184  A    between atoms: _430  and  _431
REMARK  185  A    between atoms: _430  and  _433
REMARK  186  A    between atoms: _433  and  _434
REMARK  187  A    between atoms: _440  and  _442
REMARK  188  A    between atoms: _442  and  _443
REMARK  189  A    between atoms: _442  and  _445
REMARK  190  A    between atoms: _445  and  _446
REMARK  191  A    between atoms: _449  and  _451
REMARK  192  A    between atoms: _451  and  _452
REMARK  193  A    between atoms: _451  and  _454
REMARK  194  A    between atoms: _454  and  _455
REMARK  195  A    between atoms: _458  and  _460
REMARK  196  A    between atoms: _460  and  _461
REMARK  197  A    between atoms: _464  and  _466
REMARK  198  A    between atoms: _466  and  _467
REMARK  199  A    between atoms: _466  and  _469
REMARK  200  A    between atoms: _469  and  _470
REMARK  201  A    between atoms: _473  and  _475
REMARK  202  A    between atoms: _475  and  _476
REMARK  203  A    between atoms: _475  and  _478
REMARK  204  A    between atoms: _481  and  _483
REMARK  205  A    between atoms: _483  and  _484
REMARK  206  A    between atoms: _487  and  _489
REMARK  207  A    between atoms: _489  and  _490
REMARK  208  A    between atoms: _489  and  _492
REMARK  209  A    between atoms: _492  and  _493
REMARK  210  A    between atoms: _499  and  _501
REMARK  211  A    between atoms: _501  and  _502
REMARK  212  A    between atoms: _501  and  _504
REMARK  213  A    between atoms: _504  and  _505
REMARK  214  A    between atoms: _510  and  _511
REMARK  215  A    between atoms: _513  and  _515
REMARK  216  A    between atoms: _515  and  _516
REMARK  217  A    between atoms: _515  and  _518
REMARK  218  A    between atoms: _518  and  _519
REMARK  219  A    between atoms: _523  and  _524
REMARK                            x       y       z     vdW  Elec       q    Type
REMARK                         _______ _______ _______ _____ _____    ______ ____
ROOT
ATOM      1  C   ALA A   2      64.026  70.689  25.366  0.00  0.00    +0.241 C 
ATOM      2  O   ALA A   2      64.090  70.033  26.412  0.00  0.00    -0.273 OA
ATOM      3  N   MET A   3      64.028  70.134  24.157  0.00  0.00    -0.298 N 
ATOM      4  H   MET A   3      63.999  70.745  23.316  0.00  0.00    +0.150 HD
ENDROOT
BRANCH   1   5
ATOM      5  CA  ALA A   2      63.935  72.212  25.425  0.00  0.00    +0.149 C 
ATOM      6  CB  ALA A   2      62.490  72.635  25.125  0.00  0.00    +0.031 C 
BRANCH   5   9
ATOM      7  C   GLY A   1      66.143  73.123  24.859  0.00  0.00    +0.240 C 
ATOM      8  O   GLY A   1      66.629  72.731  25.916  0.00  0.00    -0.274 OA
ATOM      9  N   ALA A   2      64.866  72.931  24.536  0.00  0.00    -0.297 N 
ATOM     10  H   ALA A   2      64.514  73.299  23.629  0.00  0.00    +0.150 HD
BRANCH   7  11
ATOM     11  CA  GLY A   1      67.005  73.911  23.875  0.00  0.00    +0.169 C 
BRANCH  11  12
ATOM     12  N   GLY A   1      67.898  74.707  24.690  0.00  0.00    -0.236 NA
ATOM     13  H   GLY A   1      68.441  74.233  25.439  0.00  0.00    +0.142 HD
ENDBRANCH  11  12
ENDBRANCH   7  11
ENDBRANCH   5   9
ENDBRANCH   1   5
BRANCH   3  14
ATOM     14  CA  MET A   3      64.070  68.677  23.986  0.00  0.00    +0.138 C 
BRANCH  14  15
ATOM     15  C   MET A   3      65.408  68.082  23.514  0.00  0.00    +0.227 C 
ATOM     16  O   MET A   3      66.230  68.761  22.889  0.00  0.00    -0.286 OA
ENDBRANCH  14  15
BRANCH  14  17
ATOM     17  CB  MET A   3      62.977  68.243  22.996  0.00  0.00    +0.039 C 
BRANCH  17  18
ATOM     18  CG  MET A   3      61.555  68.669  23.388  0.00  0.00    +0.060 C 
BRANCH  18  19
ATOM     19  SD  MET A   3      60.395  68.377  22.033  0.00  0.00    -0.139 S 
ATOM     20  CE  MET A   3      60.688  69.844  21.019  0.00  0.00    +0.069 C 
ENDBRANCH  18  19
ENDBRANCH  17  18
ENDBRANCH  14  17
ENDBRANCH   3  14
TORSDOF 9
REMARK  Name = ../refined-set-2016/1nc1/1nc1_pocket.pdb
REMARK  219 active torsions:
REMARK  status: ('A' for Active; 'I' for Inactive)
REMARK    1  A    between atoms: _1  and  _3
REMARK    2  A    between atoms: _3  and  _4
REMARK    3  A    between atoms: _6  and  _8
REMARK    4  A    between atoms: _8  and  _9
REMARK    5  A    between atoms: _12  and  _14
REMARK    6  A    between atoms: _14  and  _15
REMARK    7  A    between atoms: _14  and  _17
REMARK    8  A    between atoms: _17  and  _18
REMARK    9  A    between atoms: _18  and  _19
REMARK   10  A    between atoms: _21  and  _23
REMARK   11  A    between atoms: _23  and  _24
REMARK   12  A    between atoms: _23  and  _26
REMARK   13  A    between atoms: _26  and  _27
REMARK   14  A    between atoms: _27  and  _28
REMARK   15  A    between atoms: _31  and  _33
REMARK   16  A    between atoms: _33  and  _34
REMARK   17  A    between atoms: _33  and  _36
REMARK   18  A    between atoms: _36  and  _37
REMARK   19  A    between atoms: _37  and  _38
REMARK   20  A    between atoms: _41  and  _43
REMARK   21  A    between atoms: _43  and  _44
REMARK   22  A    between atoms: _43  and  _46
REMARK   23  A    between atoms: _46  and  _47
REMARK   24  A    between atoms: _49  and  _51
REMARK   25  A    between atoms: _51  and  _52
REMARK   26  A    between atoms: _54  and  _56
REMARK   27  A    between atoms: _56  and  _57
REMARK   28  A    between atoms: _56  and  _59
REMARK   29  A    between atoms: _59  and  _60
REMARK   30  A    between atoms: _63  and  _65
REMARK   31  A    between atoms: _65  and  _66
REMARK   32  A    between atoms: _68  and  _70
REMARK   33  A    between atoms: _70  and  _71
REMARK   34  A    between atoms: _70  and  _73
REMARK   35  A    between atoms: _73  and  _74
REMARK   36  A    between atoms: _74  and  _75
REMARK   37  A    between atoms: _75  and  _76
REMARK   38  A    between atoms: _76  and  _77
REMARK   39  A    between atoms: _81  and  _83
REMARK   40  A    between atoms: _83  and  _84
REMARK   41  A    between atoms: _87  and  _89
REMARK   42  A    between atoms: _89  and  _90
REMARK   43  A    between atoms: _93  and  _95
REMARK   44  A    between atoms: _95  and  _96
REMARK   45  A    between atoms: _95  and  _98
REMARK   46  A    between atoms: _98  and  _99
REMARK   47  A    between atoms: _104  and  _106
REMARK   48  A    between atoms: _106  and  _107
REMARK   49  A    between atoms: _106  and  _109
REMARK   50  A    between atoms: _109  and  _110
REMARK   51  A    between atoms: _113  and  _115
REMARK   52  A    between atoms: _115  and  _116
REMARK   53  A    between atoms: _118  and  _120
REMARK   54  A    between atoms: _120  and  _121
REMARK   55  A    between atoms: _120  and  _123
REMARK   56  A    between atoms: _123  and  _124
REMARK   57  A    between atoms: _126  and  _128
REMARK   58  A    between atoms: _128  and  _129
REMARK   59  A    between atoms: _132  and  _134
REMARK   60  A    between atoms: _134  and  _135
REMARK   61  A    between atoms: _137  and  _139
REMARK   62  A    between atoms: _139  and  _140
REMARK   63  A    between atoms: _142  and  _144
REMARK   64  A    between atoms: _144  and  _145
REMARK   65  A    between atoms: _144  and  _147
REMARK   66  A    between atoms: _147  and  _148
REMARK   67  A    between atoms: _151  and  _153
REMARK   68  A    between atoms: _153  and  _154
REMARK   69  A    between atoms: _153  and  _156
REMARK   70  A    between atoms: _156  and  _157
REMARK   71  A    between atoms: _162  and  _164
REMARK   72  A    between atoms: _164  and  _165
REMARK   73  A    between atoms: _164  and  _167
REMARK   74  A    between atoms: _167  and  _168
REMARK   75  A    between atoms: _171  and  _173
REMARK   76  A    between atoms: _173  and  _174
REMARK   77  A    between atoms: _173  and  _176
REMARK   78  A    between atoms: _179  and  _181
REMARK   79  A    between atoms: _181  and  _182
REMARK   80  A    between atoms: _181  and  _184
REMARK   81  A    between atoms: _184  and  _185
REMARK   82  A    between atoms: _187  and  _189
REMARK   83  A    between atoms: _189  and  _190
REMARK   84  A    between atoms: _192  and  _194
REMARK   85  A    between atoms: _194  and  _195
REMARK   86  A    between atoms: _194  and  _197
REMARK   87  A    between atoms: _197  and  _198
REMARK   88  A    between atoms: _201  and  _203
REMARK   89  A    between atoms: _203  and  _204
REMARK   90  A    between atoms: _207  and  _209
REMARK   91  A    between atoms: _209  and  _210
REMARK   92  A    between atoms: _209  and  _212
REMARK   93  A    between atoms: _212  and  _213
REMARK   94  A    between atoms: _219  and  _221
REMARK   95  A    between atoms: _221  and  _222
REMARK   96  A    between atoms: _221  and  _224
REMARK   97  A    between atoms: _224  and  _225
REMARK   98  A    between atoms: _228  and  _230
REMARK   99  A    between atoms: _230  and  _231
REMARK  100  A    between atoms: _230  and  _233
REMARK  101  A    between atoms: _233  and  _234
REMARK  102  A    between atoms: _239  and  _241
REMARK  103  A    between atoms: _241  and  _242
REMARK  104  A    between atoms: _244  and  _246
REMARK  105  A    between atoms: _246  and  _247
REMARK  106  A    between atoms: _246  and  _249
REMARK  107  A    between atoms: _249  and  _250
REMARK  108  A    between atoms: _253  and  _255
REMARK  109  A    between atoms: _255  and  _256
REMARK  110  A    between atoms: _255  and  _258
REMARK  111  A    between atoms: _258  and  _259
REMARK  112  A    between atoms: _262  and  _264
REMARK  113  A    between atoms: _264  and  _265
REMARK  114  A    between atoms: _268  and  _270
REMARK  115  A    between atoms: _270  and  _271
REMARK  116  A    between atoms: _270  and  _273
REMARK  117  A    between atoms: _276  and  _278
REMARK  118  A    between atoms: _278  and  _279
REMARK  119  A    between atoms: _278  and  _281
REMARK  120  A    between atoms: _281  and  _282
REMARK  121  A    between atoms: _282  and  _283
REMARK  122  A    between atoms: _286  and  _288
REMARK  123  A    between atoms: _288  and  _289
REMARK  124  A    between atoms: _288  and  _291
REMARK  125  A    between atoms: _291  and  _292
REMARK  126  A    between atoms: _292  and  _293
REMARK  127  A    between atoms: _295  and  _297
REMARK  128  A    between atoms: _297  and  _298
REMARK  129  A    between atoms: _297  and  _300
REMARK  130  A    between atoms: _300  and  _301
REMARK  131  A    between atoms: _301  and  _302
REMARK  132  A    between atoms: _305  and  _307
REMARK  133  A    between atoms: _307  and  _308
REMARK  134  A    between atoms: _311  and  _313
REMARK  135  A    between atoms: _313  and  _314
REMARK  136  A    between atoms: _313  and  _316
REMARK  137  A    between atoms: _316  and  _317
REMARK  138  A    between atoms: _320  and  _322
REMARK  139  A    between atoms: _322  and  _323
REMARK  140  A    between atoms: _322  and  _325
REMARK  141  A    between atoms: _325  and  _326
REMARK  142  A    between atoms: _329  and  _331
REMARK  143  A    between atoms: _331  and  _332
REMARK  144  A    between atoms: _331  and  _334
REMARK  145  A    between atoms: _334  and  _335
REMARK  146  A    between atoms: _335  and  _336
REMARK  147  A    between atoms: _336  and  _337
REMARK  148  A    between atoms: _346  and  _348
REMARK  149  A    between atoms: _348  and  _349
REMARK  150  A    between atoms: _352  and  _354
REMARK  151  A    between atoms: _354  and  _355
REMARK  152  A    between atoms: _354  and  _357
REMARK  153  A    between atoms: _357  and  _358
REMARK  154  A    between atoms: _361  and  _363
REMARK  155  A    between atoms: _363  and  _364
REMARK  156  A    between atoms: _363  and  _366
REMARK  157  A    between atoms: _366  and  _367
REMARK  158  A    between atoms: _369  and  _371
REMARK  159  A    between atoms: _371  and  _372
REMARK  160  A    between atoms: _371  and  _374
REMARK  161  A    between atoms: _374  and  _375
REMARK  162  A    between atoms: _378  and  _380
REMARK  163  A    between atoms: _380  and  _381
REMARK  164  A    between atoms: _380  and  _383
REMARK  165  A    between atoms: _386  and  _388
REMARK  166  A    between atoms: _388  and  _389
REMARK  167  A    between atoms: _392  and  _394
REMARK  168  A    between atoms: _394  and  _395
REMARK  169  A    between atoms: _394  and  _397
REMARK  170  A    between atoms: _397  and  _398
REMARK  171  A    between atoms: _401  and  _403
REMARK  172  A    between atoms: _403  and  _404
REMARK  173  A    between atoms: _403  and  _406
REMARK  174  A    between atoms: _406  and  _407
REMARK  175  A    between atoms: _409  and  _411
REMARK  176  A    between atoms: _411  and  _412
REMARK  177  A    between atoms: _411  and  _414
REMARK  178  A    between atoms: _414  and  _415
REMARK  179  A    between atoms: _420  and  _422
REMARK  180  A    between atoms: _422  and  _423
REMARK  181  A    between atoms: _422  and  _425
REMARK  182  A    between atoms: _425  and  _426
REMARK  183  A    between atoms: _428  and  _430
REMARK  184  A    between atoms: _430  and  _431
REMARK  185  A    between atoms: _430  and  _433
REMARK  186  A    between atoms: _433  and  _434
REMARK  187  A    between atoms: _440  and  _442
REMARK  188  A    between atoms: _442  and  _443
REMARK  189  A    between atoms: _442  and  _445
REMARK  190  A    between atoms: _445  and  _446
REMARK  191  A    between atoms: _449  and  _451
REMARK  192  A    between atoms: _451  and  _452
REMARK  193  A    between atoms: _451  and  _454
REMARK  194  A    between atoms: _454  and  _455
REMARK  195  A    between atoms: _458  and  _460
REMARK  196  A    between atoms: _460  and  _461
REMARK  197  A    between atoms: _464  and  _466
REMARK  198  A    between atoms: _466  and  _467
REMARK  199  A    between atoms: _466  and  _469
REMARK  200  A    between atoms: _469  and  _470
REMARK  201  A    between atoms: _473  and  _475
REMARK  202  A    between atoms: _475  and  _476
REMARK  203  A    between atoms: _475  and  _478
REMARK  204  A    between atoms: _481  and  _483
REMARK  205  A    between atoms: _483  and  _484
REMARK  206  A    between atoms: _487  and  _489
REMARK  207  A    between atoms: _489  and  _490
REMARK  208  A    between atoms: _489  and  _492
REMARK  209  A    between atoms: _492  and  _493
REMARK  210  A    between atoms: _499  and  _501
REMARK  211  A    between atoms: _501  and  _502
REMARK  212  A    between atoms: _501  and  _504
REMARK  213  A    between atoms: _504  and  _505
REMARK  214  A    between atoms: _510  and  _511
REMARK  215  A    between atoms: _513  and  _515
REMARK  216  A    between atoms: _515  and  _516
REMARK  217  A    between atoms: _515  and  _518
REMARK  218  A    between atoms: _518  and  _519
REMARK  219  A    between atoms: _523  and  _524
REMARK                            x       y       z     vdW  Elec       q    Type
REMARK                         _______ _______ _______ _____ _____    ______ ____
ROOT
ATOM      1  C   GLU A   1      66.796  67.555  19.269  0.00  0.00    +0.238 C 
ATOM      2  N   GLU A   2      66.397  68.555  20.059  0.00  0.00    -0.298 N 
ATOM      3  H   GLU A   2      65.809  68.358  20.894  0.00  0.00    +0.150 HD
ATOM      4  O   GLU A   1      67.513  67.733  18.287  0.00  0.00    -0.274 OA
ENDROOT
BRANCH   1   5
ATOM      5  CA  GLU A   1      66.349  66.148  19.638  0.00  0.00    +0.145 C 
BRANCH   5   6
ATOM      6  N   GLU A   1      66.146  66.021  21.070  0.00  0.00    -0.238 NA
ATOM      7  H   GLU A   1      65.202  65.770  21.428  0.00  0.00    +0.142 HD
ENDBRANCH   5   6
BRANCH   5   8
ATOM      8  CB  GLU A   1      65.057  65.795  18.882  0.00  0.00    +0.038 C 
BRANCH   8   9
ATOM      9  CG  GLU A   1      63.811  65.803  19.770  0.00  0.00    +0.116 C 
BRANCH   9  10
ATOM     10  CD  GLU A   1      63.763  64.623  20.731  0.00  0.00    +0.365 C 
ATOM     11  OE2 GLU A   1      63.321  64.803  21.901  0.00  0.00    -0.246 OA
ATOM     12  OE1 GLU A   1      64.167  63.511  20.302  0.00  0.00    -0.246 OA
ENDBRANCH   9  10
ENDBRANCH   8   9
ENDBRANCH   5   8
ENDBRANCH   1   5
BRANCH   2  13
ATOM     13  CA  GLU A   2      66.789  69.925  19.746  0.00  0.00    +0.137 C 
BRANCH  13  14
ATOM     14  C   GLU A   2      68.201  70.304  20.189  0.00  0.00    +0.227 C 
ATOM     15  O   GLU A   2      68.744  71.303  19.714  0.00  0.00    -0.286 OA
ENDBRANCH  13  14
BRANCH  13  16
ATOM     16  CB  GLU A   2      65.797  70.921  20.352  0.00  0.00    +0.039 C 
BRANCH  16  17
ATOM     17  CG  GLU A   2      64.414  70.931  19.691  0.00  0.00    +0.116 C 
BRANCH  17  18
ATOM     18  CD  GLU A   2      63.393  71.665  20.551  0.00  0.00    +0.365 C 
ATOM     19  OE2 GLU A   2      63.505  71.559  21.792  0.00  0.00    -0.246 OA
ATOM     20  OE1 GLU A   2      62.491  72.338  19.991  0.00  0.00    -0.246 OA
ENDBRANCH  17  18
ENDBRANCH  16  17
ENDBRANCH  13  16
ENDBRANCH   2  13
TORSDOF 10
REMARK  Name = ../refined-set-2016/1nc1/1nc1_pocket.pdb
REMARK  219 active torsions:
REMARK  status: ('A' for Active; 'I' for Inactive)
REMARK    1  A    between atoms: _1  and  _3
REMARK    2  A    between atoms: _3  and  _4
REMARK    3  A    between atoms: _6  and  _8
REMARK    4  A    between atoms: _8  and  _9
REMARK    5  A    between atoms: _12  and  _14
REMARK    6  A    between atoms: _14  and  _15
REMARK    7  A    between atoms: _14  and  _17
REMARK    8  A    between atoms: _17  and  _18
REMARK    9  A    between atoms: _18  and  _19
REMARK   10  A    between atoms: _21  and  _23
REMARK   11  A    between atoms: _23  and  _24
REMARK   12  A    between atoms: _23  and  _26
REMARK   13  A    between atoms: _26  and  _27
REMARK   14  A    between atoms: _27  and  _28
REMARK   15  A    between atoms: _31  and  _33
REMARK   16  A    between atoms: _33  and  _34
REMARK   17  A    between atoms: _33  and  _36
REMARK   18  A    between atoms: _36  and  _37
REMARK   19  A    between atoms: _37  and  _38
REMARK   20  A    between atoms: _41  and  _43
REMARK   21  A    between atoms: _43  and  _44
REMARK   22  A    between atoms: _43  and  _46
REMARK   23  A    between atoms: _46  and  _47
REMARK   24  A    between atoms: _49  and  _51
REMARK   25  A    between atoms: _51  and  _52
REMARK   26  A    between atoms: _54  and  _56
REMARK   27  A    between atoms: _56  and  _57
REMARK   28  A    between atoms: _56  and  _59
REMARK   29  A    between atoms: _59  and  _60
REMARK   30  A    between atoms: _63  and  _65
REMARK   31  A    between atoms: _65  and  _66
REMARK   32  A    between atoms: _68  and  _70
REMARK   33  A    between atoms: _70  and  _71
REMARK   34  A    between atoms: _70  and  _73
REMARK   35  A    between atoms: _73  and  _74
REMARK   36  A    between atoms: _74  and  _75
REMARK   37  A    between atoms: _75  and  _76
REMARK   38  A    between atoms: _76  and  _77
REMARK   39  A    between atoms: _81  and  _83
REMARK   40  A    between atoms: _83  and  _84
REMARK   41  A    between atoms: _87  and  _89
REMARK   42  A    between atoms: _89  and  _90
REMARK   43  A    between atoms: _93  and  _95
REMARK   44  A    between atoms: _95  and  _96
REMARK   45  A    between atoms: _95  and  _98
REMARK   46  A    between atoms: _98  and  _99
REMARK   47  A    between atoms: _104  and  _106
REMARK   48  A    between atoms: _106  and  _107
REMARK   49  A    between atoms: _106  and  _109
REMARK   50  A    between atoms: _109  and  _110
REMARK   51  A    between atoms: _113  and  _115
REMARK   52  A    between atoms: _115  and  _116
REMARK   53  A    between atoms: _118  and  _120
REMARK   54  A    between atoms: _120  and  _121
REMARK   55  A    between atoms: _120  and  _123
REMARK   56  A    between atoms: _123  and  _124
REMARK   57  A    between atoms: _126  and  _128
REMARK   58  A    between atoms: _128  and  _129
REMARK   59  A    between atoms: _132  and  _134
REMARK   60  A    between atoms: _134  and  _135
REMARK   61  A    between atoms: _137  and  _139
REMARK   62  A    between atoms: _139  and  _140
REMARK   63  A    between atoms: _142  and  _144
REMARK   64  A    between atoms: _144  and  _145
REMARK   65  A    between atoms: _144  and  _147
REMARK   66  A    between atoms: _147  and  _148
REMARK   67  A    between atoms: _151  and  _153
REMARK   68  A    between atoms: _153  and  _154
REMARK   69  A    between atoms: _153  and  _156
REMARK   70  A    between atoms: _156  and  _157
REMARK   71  A    between atoms: _162  and  _164
REMARK   72  A    between atoms: _164  and  _165
REMARK   73  A    between atoms: _164  and  _167
REMARK   74  A    between atoms: _167  and  _168
REMARK   75  A    between atoms: _171  and  _173
REMARK   76  A    between atoms: _173  and  _174
REMARK   77  A    between atoms: _173  and  _176
REMARK   78  A    between atoms: _179  and  _181
REMARK   79  A    between atoms: _181  and  _182
REMARK   80  A    between atoms: _181  and  _184
REMARK   81  A    between atoms: _184  and  _185
REMARK   82  A    between atoms: _187  and  _189
REMARK   83  A    between atoms: _189  and  _190
REMARK   84  A    between atoms: _192  and  _194
REMARK   85  A    between atoms: _194  and  _195
REMARK   86  A    between atoms: _194  and  _197
REMARK   87  A    between atoms: _197  and  _198
REMARK   88  A    between atoms: _201  and  _203
REMARK   89  A    between atoms: _203  and  _204
REMARK   90  A    between atoms: _207  and  _209
REMARK   91  A    between atoms: _209  and  _210
REMARK   92  A    between atoms: _209  and  _212
REMARK   93  A    between atoms: _212  and  _213
REMARK   94  A    between atoms: _219  and  _221
REMARK   95  A    between atoms: _221  and  _222
REMARK   96  A    between atoms: _221  and  _224
REMARK   97  A    between atoms: _224  and  _225
REMARK   98  A    between atoms: _228  and  _230
REMARK   99  A    between atoms: _230  and  _231
REMARK  100  A    between atoms: _230  and  _233
REMARK  101  A    between atoms: _233  and  _234
REMARK  102  A    between atoms: _239  and  _241
REMARK  103  A    between atoms: _241  and  _242
REMARK  104  A    between atoms: _244  and  _246
REMARK  105  A    between atoms: _246  and  _247
REMARK  106  A    between atoms: _246  and  _249
REMARK  107  A    between atoms: _249  and  _250
REMARK  108  A    between atoms: _253  and  _255
REMARK  109  A    between atoms: _255  and  _256
REMARK  110  A    between atoms: _255  and  _258
REMARK  111  A    between atoms: _258  and  _259
REMARK  112  A    between atoms: _262  and  _264
REMARK  113  A    between atoms: _264  and  _265
REMARK  114  A    between atoms: _268  and  _270
REMARK  115  A    between atoms: _270  and  _271
REMARK  116  A    between atoms: _270  and  _273
REMARK  117  A    between atoms: _276  and  _278
REMARK  118  A    between atoms: _278  and  _279
REMARK  119  A    between atoms: _278  and  _281
REMARK  120  A    between atoms: _281  and  _282
REMARK  121  A    between atoms: _282  and  _283
REMARK  122  A    between atoms: _286  and  _288
REMARK  123  A    between atoms: _288  and  _289
REMARK  124  A    between atoms: _288  and  _291
REMARK  125  A    between atoms: _291  and  _292
REMARK  126  A    between atoms: _292  and  _293
REMARK  127  A    between atoms: _295  and  _297
REMARK  128  A    between atoms: _297  and  _298
REMARK  129  A    between atoms: _297  and  _300
REMARK  130  A    between atoms: _300  and  _301
REMARK  131  A    between atoms: _301  and  _302
REMARK  132  A    between atoms: _305  and  _307
REMARK  133  A    between atoms: _307  and  _308
REMARK  134  A    between atoms: _311  and  _313
REMARK  135  A    between atoms: _313  and  _314
REMARK  136  A    between atoms: _313  and  _316
REMARK  137  A    between atoms: _316  and  _317
REMARK  138  A    between atoms: _320  and  _322
REMARK  139  A    between atoms: _322  and  _323
REMARK  140  A    between atoms: _322  and  _325
REMARK  141  A    between atoms: _325  and  _326
REMARK  142  A    between atoms: _329  and  _331
REMARK  143  A    between atoms: _331  and  _332
REMARK  144  A    between atoms: _331  and  _334
REMARK  145  A    between atoms: _334  and  _335
REMARK  146  A    between atoms: _335  and  _336
REMARK  147  A    between atoms: _336  and  _337
REMARK  148  A    between atoms: _346  and  _348
REMARK  149  A    between atoms: _348  and  _349
REMARK  150  A    between atoms: _352  and  _354
REMARK  151  A    between atoms: _354  and  _355
REMARK  152  A    between atoms: _354  and  _357
REMARK  153  A    between atoms: _357  and  _358
REMARK  154  A    between atoms: _361  and  _363
REMARK  155  A    between atoms: _363  and  _364
REMARK  156  A    between atoms: _363  and  _366
REMARK  157  A    between atoms: _366  and  _367
REMARK  158  A    between atoms: _369  and  _371
REMARK  159  A    between atoms: _371  and  _372
REMARK  160  A    between atoms: _371  and  _374
REMARK  161  A    between atoms: _374  and  _375
REMARK  162  A    between atoms: _378  and  _380
REMARK  163  A    between atoms: _380  and  _381
REMARK  164  A    between atoms: _380  and  _383
REMARK  165  A    between atoms: _386  and  _388
REMARK  166  A    between atoms: _388  and  _389
REMARK  167  A    between atoms: _392  and  _394
REMARK  168  A    between atoms: _394  and  _395
REMARK  169  A    between atoms: _394  and  _397
REMARK  170  A    between atoms: _397  and  _398
REMARK  171  A    between atoms: _401  and  _403
REMARK  172  A    between atoms: _403  and  _404
REMARK  173  A    between atoms: _403  and  _406
REMARK  174  A    between atoms: _406  and  _407
REMARK  175  A    between atoms: _409  and  _411
REMARK  176  A    between atoms: _411  and  _412
REMARK  177  A    between atoms: _411  and  _414
REMARK  178  A    between atoms: _414  and  _415
REMARK  179  A    between atoms: _420  and  _422
REMARK  180  A    between atoms: _422  and  _423
REMARK  181  A    between atoms: _422  and  _425
REMARK  182  A    between atoms: _425  and  _426
REMARK  183  A    between atoms: _428  and  _430
REMARK  184  A    between atoms: _430  and  _431
REMARK  185  A    between atoms: _430  and  _433
REMARK  186  A    between atoms: _433  and  _434
REMARK  187  A    between atoms: _440  and  _442
REMARK  188  A    between atoms: _442  and  _443
REMARK  189  A    between atoms: _442  and  _445
REMARK  190  A    between atoms: _445  and  _446
REMARK  191  A    between atoms: _449  and  _451
REMARK  192  A    between atoms: _451  and  _452
REMARK  193  A    between atoms: _451  and  _454
REMARK  194  A    between atoms: _454  and  _455
REMARK  195  A    between atoms: _458  and  _460
REMARK  196  A    between atoms: _460  and  _461
REMARK  197  A    between atoms: _464  and  _466
REMARK  198  A    between atoms: _466  and  _467
REMARK  199  A    between atoms: _466  and  _469
REMARK  200  A    between atoms: _469  and  _470
REMARK  201  A    between atoms: _473  and  _475
REMARK  202  A    between atoms: _475  and  _476
REMARK  203  A    between atoms: _475  and  _478
REMARK  204  A    between atoms: _481  and  _483
REMARK  205  A    between atoms: _483  and  _484
REMARK  206  A    between atoms: _487  and  _489
REMARK  207  A    between atoms: _489  and  _490
REMARK  208  A    between atoms: _489  and  _492
REMARK  209  A    between atoms: _492  and  _493
REMARK  210  A    between atoms: _499  and  _501
REMARK  211  A    between atoms: _501  and  _502
REMARK  212  A    between atoms: _501  and  _504
REMARK  213  A    between atoms: _504  and  _505
REMARK  214  A    between atoms: _510  and  _511
REMARK  215  A    between atoms: _513  and  _515
REMARK  216  A    between atoms: _515  and  _516
REMARK  217  A    between atoms: _515  and  _518
REMARK  218  A    between atoms: _518  and  _519
REMARK  219  A    between atoms: _523  and  _524
REMARK                            x       y       z     vdW  Elec       q    Type
REMARK                         _______ _______ _______ _____ _____    ______ ____
ROOT
ATOM      1  CA  ILE A   3      59.313  71.701  28.012  0.00  0.00    +0.149 C 
ENDROOT
BRANCH   1   3
ATOM      2  C   GLY A   2      61.603  71.424  28.815  0.00  0.00    +0.243 C 
ATOM      3  N   ILE A   3      60.370  70.959  28.684  0.00  0.00    -0.297 N 
ATOM      4  H   ILE A   3      60.147  70.023  29.078  0.00  0.00    +0.150 HD
ATOM      5  O   GLY A   2      61.919  72.568  28.449  0.00  0.00    -0.273 OA
BRANCH   2   6
ATOM      6  CA  GLY A   2      62.623  70.479  29.457  0.00  0.00    +0.176 C 
BRANCH   6   9
ATOM      7  C   SER A   1      64.432  71.866  30.139  0.00  0.00    +0.241 C 
ATOM      8  O   SER A   1      64.011  71.872  31.303  0.00  0.00    -0.274 OA
ATOM      9  N   GLY A   2      63.882  71.142  29.182  0.00  0.00    -0.295 N 
ATOM     10  H   GLY A   2      64.341  71.050  28.253  0.00  0.00    +0.150 HD
BRANCH   7  11
ATOM     11  CA  SER A   1      65.642  72.695  29.761  0.00  0.00    +0.174 C 
BRANCH  11  12
ATOM     12  N   SER A   1      66.550  72.231  28.710  0.00  0.00    -0.236 NA
ATOM     13  H   SER A   1      66.440  72.591  27.741  0.00  0.00    +0.142 HD
ENDBRANCH  11  12
BRANCH  11  14
ATOM     14  CB  SER A   1      65.103  74.086  29.417  0.00  0.00    +0.163 C 
BRANCH  14  15
ATOM     15  OG  SER A   1      64.319  74.054  28.223  0.00  0.00    -0.380 OA
ATOM     16  H   SER A   1      63.553  73.440  28.349  0.00  0.00    +0.211 HD
ENDBRANCH  14  15
ENDBRANCH  11  14
ENDBRANCH   7  11
ENDBRANCH   6   9
ENDBRANCH   2   6
ENDBRANCH   1   3
BRANCH   1  17
ATOM     17  C   ILE A   3      58.426  72.612  28.863  0.00  0.00    +0.241 C 
ATOM     18  O   ILE A   3      58.053  72.253  29.969  0.00  0.00    -0.273 OA
ATOM     19  N   GLY A   4      58.094  73.797  28.342  0.00  0.00    -0.295 N 
ATOM     20  H   GLY A   4      58.468  74.081  27.414  0.00  0.00    +0.150 HD
BRANCH  19  21
ATOM     21  CA  GLY A   4      57.211  74.687  29.072  0.00  0.00    +0.176 C 
BRANCH  21  22
ATOM     22  C   GLY A   4      57.898  75.859  29.749  0.00  0.00    +0.243 C 
ATOM     23  N   LYS A   5      57.073  76.817  30.152  0.00  0.00    -0.298 N 
ATOM     24  H   LYS A   5      56.051  76.674  30.025  0.00  0.00    +0.150 HD
ATOM     25  O   GLY A   4      59.117  75.882  29.940  0.00  0.00    -0.273 OA
BRANCH  23  26
ATOM     26  CA  LYS A   5      57.529  78.062  30.765  0.00  0.00    +0.137 C 
BRANCH  26  27
ATOM     27  C   LYS A   5      58.329  77.919  32.034  0.00  0.00    +0.227 C 
ATOM     28  O   LYS A   5      59.385  78.545  32.188  0.00  0.00    -0.286 OA
ENDBRANCH  26  27
BRANCH  26  29
ATOM     29  CB  LYS A   5      56.310  78.975  31.003  0.00  0.00    +0.028 C 
BRANCH  29  30
ATOM     30  CG  LYS A   5      55.637  79.394  29.691  0.00  0.00    -0.000 C 
BRANCH  30  31
ATOM     31  CD  LYS A   5      54.154  79.883  29.823  0.00  0.00    -0.024 C 
BRANCH  31  32
ATOM     32  CE  LYS A   5      54.001  81.168  30.585  0.00  0.00    -0.086 C 
BRANCH  32  33
ATOM     33  NZ  LYS A   5      52.570  81.672  30.548  0.00  0.00    +0.380 N 
ATOM     34  HZ1 LYS A   5      52.503  82.561  31.084  0.00  0.00    -0.089 HD
ATOM     35  HZ2 LYS A   5      51.942  80.960  30.973  0.00  0.00    -0.089 HD
ATOM     36  HZ3 LYS A   5      52.288  81.839  29.561  0.00  0.00    -0.089 HD
ENDBRANCH  32  33
ENDBRANCH  31  32
ENDBRANCH  30  31
ENDBRANCH  29  30
ENDBRANCH  26  29
ENDBRANCH  23  26
ENDBRANCH  21  22
ENDBRANCH  19  21
ENDBRANCH   1  17
BRANCH   1  37
ATOM     37  CB  ILE A   3      58.421  70.672  27.259  0.00  0.00    +0.027 C 
ATOM     38  CG2 ILE A   3      57.135  71.323  26.752  0.00  0.00    +0.002 C 
BRANCH  37  39
ATOM     39  CG1 ILE A   3      59.227  70.055  26.103  0.00  0.00    +0.002 C 
ATOM     40  CD1 ILE A   3      59.929  70.927  25.164  0.00  0.00    +0.000 C 
ENDBRANCH  37  39
ENDBRANCH   1  37
TORSDOF 19
REMARK  Name = ../refined-set-2016/1nc1/1nc1_pocket.pdb
REMARK  219 active torsions:
REMARK  status: ('A' for Active; 'I' for Inactive)
REMARK    1  A    between atoms: _1  and  _3
REMARK    2  A    between atoms: _3  and  _4
REMARK    3  A    between atoms: _6  and  _8
REMARK    4  A    between atoms: _8  and  _9
REMARK    5  A    between atoms: _12  and  _14
REMARK    6  A    between atoms: _14  and  _15
REMARK    7  A    between atoms: _14  and  _17
REMARK    8  A    between atoms: _17  and  _18
REMARK    9  A    between atoms: _18  and  _19
REMARK   10  A    between atoms: _21  and  _23
REMARK   11  A    between atoms: _23  and  _24
REMARK   12  A    between atoms: _23  and  _26
REMARK   13  A    between atoms: _26  and  _27
REMARK   14  A    between atoms: _27  and  _28
REMARK   15  A    between atoms: _31  and  _33
REMARK   16  A    between atoms: _33  and  _34
REMARK   17  A    between atoms: _33  and  _36
REMARK   18  A    between atoms: _36  and  _37
REMARK   19  A    between atoms: _37  and  _38
REMARK   20  A    between atoms: _41  and  _43
REMARK   21  A    between atoms: _43  and  _44
REMARK   22  A    between atoms: _43  and  _46
REMARK   23  A    between atoms: _46  and  _47
REMARK   24  A    between atoms: _49  and  _51
REMARK   25  A    between atoms: _51  and  _52
REMARK   26  A    between atoms: _54  and  _56
REMARK   27  A    between atoms: _56  and  _57
REMARK   28  A    between atoms: _56  and  _59
REMARK   29  A    between atoms: _59  and  _60
REMARK   30  A    between atoms: _63  and  _65
REMARK   31  A    between atoms: _65  and  _66
REMARK   32  A    between atoms: _68  and  _70
REMARK   33  A    between atoms: _70  and  _71
REMARK   34  A    between atoms: _70  and  _73
REMARK   35  A    between atoms: _73  and  _74
REMARK   36  A    between atoms: _74  and  _75
REMARK   37  A    between atoms: _75  and  _76
REMARK   38  A    between atoms: _76  and  _77
REMARK   39  A    between atoms: _81  and  _83
REMARK   40  A    between atoms: _83  and  _84
REMARK   41  A    between atoms: _87  and  _89
REMARK   42  A    between atoms: _89  and  _90
REMARK   43  A    between atoms: _93  and  _95
REMARK   44  A    between atoms: _95  and  _96
REMARK   45  A    between atoms: _95  and  _98
REMARK   46  A    between atoms: _98  and  _99
REMARK   47  A    between atoms: _104  and  _106
REMARK   48  A    between atoms: _106  and  _107
REMARK   49  A    between atoms: _106  and  _109
REMARK   50  A    between atoms: _109  and  _110
REMARK   51  A    between atoms: _113  and  _115
REMARK   52  A    between atoms: _115  and  _116
REMARK   53  A    between atoms: _118  and  _120
REMARK   54  A    between atoms: _120  and  _121
REMARK   55  A    between atoms: _120  and  _123
REMARK   56  A    between atoms: _123  and  _124
REMARK   57  A    between atoms: _126  and  _128
REMARK   58  A    between atoms: _128  and  _129
REMARK   59  A    between atoms: _132  and  _134
REMARK   60  A    between atoms: _134  and  _135
REMARK   61  A    between atoms: _137  and  _139
REMARK   62  A    between atoms: _139  and  _140
REMARK   63  A    between atoms: _142  and  _144
REMARK   64  A    between atoms: _144  and  _145
REMARK   65  A    between atoms: _144  and  _147
REMARK   66  A    between atoms: _147  and  _148
REMARK   67  A    between atoms: _151  and  _153
REMARK   68  A    between atoms: _153  and  _154
REMARK   69  A    between atoms: _153  and  _156
REMARK   70  A    between atoms: _156  and  _157
REMARK   71  A    between atoms: _162  and  _164
REMARK   72  A    between atoms: _164  and  _165
REMARK   73  A    between atoms: _164  and  _167
REMARK   74  A    between atoms: _167  and  _168
REMARK   75  A    between atoms: _171  and  _173
REMARK   76  A    between atoms: _173  and  _174
REMARK   77  A    between atoms: _173  and  _176
REMARK   78  A    between atoms: _179  and  _181
REMARK   79  A    between atoms: _181  and  _182
REMARK   80  A    between atoms: _181  and  _184
REMARK   81  A    between atoms: _184  and  _185
REMARK   82  A    between atoms: _187  and  _189
REMARK   83  A    between atoms: _189  and  _190
REMARK   84  A    between atoms: _192  and  _194
REMARK   85  A    between atoms: _194  and  _195
REMARK   86  A    between atoms: _194  and  _197
REMARK   87  A    between atoms: _197  and  _198
REMARK   88  A    between atoms: _201  and  _203
REMARK   89  A    between atoms: _203  and  _204
REMARK   90  A    between atoms: _207  and  _209
REMARK   91  A    between atoms: _209  and  _210
REMARK   92  A    between atoms: _209  and  _212
REMARK   93  A    between atoms: _212  and  _213
REMARK   94  A    between atoms: _219  and  _221
REMARK   95  A    between atoms: _221  and  _222
REMARK   96  A    between atoms: _221  and  _224
REMARK   97  A    between atoms: _224  and  _225
REMARK   98  A    between atoms: _228  and  _230
REMARK   99  A    between atoms: _230  and  _231
REMARK  100  A    between atoms: _230  and  _233
REMARK  101  A    between atoms: _233  and  _234
REMARK  102  A    between atoms: _239  and  _241
REMARK  103  A    between atoms: _241  and  _242
REMARK  104  A    between atoms: _244  and  _246
REMARK  105  A    between atoms: _246  and  _247
REMARK  106  A    between atoms: _246  and  _249
REMARK  107  A    between atoms: _249  and  _250
REMARK  108  A    between atoms: _253  and  _255
REMARK  109  A    between atoms: _255  and  _256
REMARK  110  A    between atoms: _255  and  _258
REMARK  111  A    between atoms: _258  and  _259
REMARK  112  A    between atoms: _262  and  _264
REMARK  113  A    between atoms: _264  and  _265
REMARK  114  A    between atoms: _268  and  _270
REMARK  115  A    between atoms: _270  and  _271
REMARK  116  A    between atoms: _270  and  _273
REMARK  117  A    between atoms: _276  and  _278
REMARK  118  A    between atoms: _278  and  _279
REMARK  119  A    between atoms: _278  and  _281
REMARK  120  A    between atoms: _281  and  _282
REMARK  121  A    between atoms: _282  and  _283
REMARK  122  A    between atoms: _286  and  _288
REMARK  123  A    between atoms: _288  and  _289
REMARK  124  A    between atoms: _288  and  _291
REMARK  125  A    between atoms: _291  and  _292
REMARK  126  A    between atoms: _292  and  _293
REMARK  127  A    between atoms: _295  and  _297
REMARK  128  A    between atoms: _297  and  _298
REMARK  129  A    between atoms: _297  and  _300
REMARK  130  A    between atoms: _300  and  _301
REMARK  131  A    between atoms: _301  and  _302
REMARK  132  A    between atoms: _305  and  _307
REMARK  133  A    between atoms: _307  and  _308
REMARK  134  A    between atoms: _311  and  _313
REMARK  135  A    between atoms: _313  and  _314
REMARK  136  A    between atoms: _313  and  _316
REMARK  137  A    between atoms: _316  and  _317
REMARK  138  A    between atoms: _320  and  _322
REMARK  139  A    between atoms: _322  and  _323
REMARK  140  A    between atoms: _322  and  _325
REMARK  141  A    between atoms: _325  and  _326
REMARK  142  A    between atoms: _329  and  _331
REMARK  143  A    between atoms: _331  and  _332
REMARK  144  A    between atoms: _331  and  _334
REMARK  145  A    between atoms: _334  and  _335
REMARK  146  A    between atoms: _335  and  _336
REMARK  147  A    between atoms: _336  and  _337
REMARK  148  A    between atoms: _346  and  _348
REMARK  149  A    between atoms: _348  and  _349
REMARK  150  A    between atoms: _352  and  _354
REMARK  151  A    between atoms: _354  and  _355
REMARK  152  A    between atoms: _354  and  _357
REMARK  153  A    between atoms: _357  and  _358
REMARK  154  A    between atoms: _361  and  _363
REMARK  155  A    between atoms: _363  and  _364
REMARK  156  A    between atoms: _363  and  _366
REMARK  157  A    between atoms: _366  and  _367
REMARK  158  A    between atoms: _369  and  _371
REMARK  159  A    between atoms: _371  and  _372
REMARK  160  A    between atoms: _371  and  _374
REMARK  161  A    between atoms: _374  and  _375
REMARK  162  A    between atoms: _378  and  _380
REMARK  163  A    between atoms: _380  and  _381
REMARK  164  A    between atoms: _380  and  _383
REMARK  165  A    between atoms: _386  and  _388
REMARK  166  A    between atoms: _388  and  _389
REMARK  167  A    between atoms: _392  and  _394
REMARK  168  A    between atoms: _394  and  _395
REMARK  169  A    between atoms: _394  and  _397
REMARK  170  A    between atoms: _397  and  _398
REMARK  171  A    between atoms: _401  and  _403
REMARK  172  A    between atoms: _403  and  _404
REMARK  173  A    between atoms: _403  and  _406
REMARK  174  A    between atoms: _406  and  _407
REMARK  175  A    between atoms: _409  and  _411
REMARK  176  A    between atoms: _411  and  _412
REMARK  177  A    between atoms: _411  and  _414
REMARK  178  A    between atoms: _414  and  _415
REMARK  179  A    between atoms: _420  and  _422
REMARK  180  A    between atoms: _422  and  _423
REMARK  181  A    between atoms: _422  and  _425
REMARK  182  A    between atoms: _425  and  _426
REMARK  183  A    between atoms: _428  and  _430
REMARK  184  A    between atoms: _430  and  _431
REMARK  185  A    between atoms: _430  and  _433
REMARK  186  A    between atoms: _433  and  _434
REMARK  187  A    between atoms: _440  and  _442
REMARK  188  A    between atoms: _442  and  _443
REMARK  189  A    between atoms: _442  and  _445
REMARK  190  A    between atoms: _445  and  _446
REMARK  191  A    between atoms: _449  and  _451
REMARK  192  A    between atoms: _451  and  _452
REMARK  193  A    between atoms: _451  and  _454
REMARK  194  A    between atoms: _454  and  _455
REMARK  195  A    between atoms: _458  and  _460
REMARK  196  A    between atoms: _460  and  _461
REMARK  197  A    between atoms: _464  and  _466
REMARK  198  A    between atoms: _466  and  _467
REMARK  199  A    between atoms: _466  and  _469
REMARK  200  A    between atoms: _469  and  _470
REMARK  201  A    between atoms: _473  and  _475
REMARK  202  A    between atoms: _475  and  _476
REMARK  203  A    between atoms: _475  and  _478
REMARK  204  A    between atoms: _481  and  _483
REMARK  205  A    between atoms: _483  and  _484
REMARK  206  A    between atoms: _487  and  _489
REMARK  207  A    between atoms: _489  and  _490
REMARK  208  A    between atoms: _489  and  _492
REMARK  209  A    between atoms: _492  and  _493
REMARK  210  A    between atoms: _499  and  _501
REMARK  211  A    between atoms: _501  and  _502
REMARK  212  A    between atoms: _501  and  _504
REMARK  213  A    between atoms: _504  and  _505
REMARK  214  A    between atoms: _510  and  _511
REMARK  215  A    between atoms: _513  and  _515
REMARK  216  A    between atoms: _515  and  _516
REMARK  217  A    between atoms: _515  and  _518
REMARK  218  A    between atoms: _518  and  _519
REMARK  219  A    between atoms: _523  and  _524
REMARK                            x       y       z     vdW  Elec       q    Type
REMARK                         _______ _______ _______ _____ _____    ______ ____
ROOT
ATOM      1  C   ALA A   1      62.066  75.169  32.413  0.00  0.00    +0.238 C 
ATOM      2  O   ALA A   1      63.242  75.138  32.791  0.00  0.00    -0.274 OA
ATOM      3  N   ALA A   2      61.671  75.969  31.435  0.00  0.00    -0.298 N 
ATOM      4  H   ALA A   2      60.678  75.958  31.126  0.00  0.00    +0.150 HD
ENDROOT
BRANCH   1   5
ATOM      5  CA  ALA A   1      60.981  74.273  33.059  0.00  0.00    +0.145 C 
ATOM      6  CB  ALA A   1      60.664  73.031  32.164  0.00  0.00    +0.028 C 
BRANCH   5   7
ATOM      7  N   ALA A   1      59.778  75.085  33.255  0.00  0.00    -0.238 NA
ATOM      8  H   ALA A   1      58.905  74.843  32.744  0.00  0.00    +0.142 HD
ENDBRANCH   5   7
ENDBRANCH   1   5
BRANCH   3   9
ATOM      9  CA  ALA A   2      62.625  76.867  30.788  0.00  0.00    +0.137 C 
ATOM     10  CB  ALA A   2      61.966  77.517  29.559  0.00  0.00    +0.030 C 
BRANCH   9  11
ATOM     11  C   ALA A   2      63.134  77.949  31.760  0.00  0.00    +0.227 C 
ATOM     12  O   ALA A   2      64.298  78.321  31.728  0.00  0.00    -0.286 OA
ENDBRANCH   9  11
ENDBRANCH   3   9
TORSDOF 4
REMARK  Name = ../refined-set-2016/1nc1/1nc1_pocket.pdb
REMARK  219 active torsions:
REMARK  status: ('A' for Active; 'I' for Inactive)
REMARK    1  A    between atoms: _1  and  _3
REMARK    2  A    between atoms: _3  and  _4
REMARK    3  A    between atoms: _6  and  _8
REMARK    4  A    between atoms: _8  and  _9
REMARK    5  A    between atoms: _12  and  _14
REMARK    6  A    between atoms: _14  and  _15
REMARK    7  A    between atoms: _14  and  _17
REMARK    8  A    between atoms: _17  and  _18
REMARK    9  A    between atoms: _18  and  _19
REMARK   10  A    between atoms: _21  and  _23
REMARK   11  A    between atoms: _23  and  _24
REMARK   12  A    between atoms: _23  and  _26
REMARK   13  A    between atoms: _26  and  _27
REMARK   14  A    between atoms: _27  and  _28
REMARK   15  A    between atoms: _31  and  _33
REMARK   16  A    between atoms: _33  and  _34
REMARK   17  A    between atoms: _33  and  _36
REMARK   18  A    between atoms: _36  and  _37
REMARK   19  A    between atoms: _37  and  _38
REMARK   20  A    between atoms: _41  and  _43
REMARK   21  A    between atoms: _43  and  _44
REMARK   22  A    between atoms: _43  and  _46
REMARK   23  A    between atoms: _46  and  _47
REMARK   24  A    between atoms: _49  and  _51
REMARK   25  A    between atoms: _51  and  _52
REMARK   26  A    between atoms: _54  and  _56
REMARK   27  A    between atoms: _56  and  _57
REMARK   28  A    between atoms: _56  and  _59
REMARK   29  A    between atoms: _59  and  _60
REMARK   30  A    between atoms: _63  and  _65
REMARK   31  A    between atoms: _65  and  _66
REMARK   32  A    between atoms: _68  and  _70
REMARK   33  A    between atoms: _70  and  _71
REMARK   34  A    between atoms: _70  and  _73
REMARK   35  A    between atoms: _73  and  _74
REMARK   36  A    between atoms: _74  and  _75
REMARK   37  A    between atoms: _75  and  _76
REMARK   38  A    between atoms: _76  and  _77
REMARK   39  A    between atoms: _81  and  _83
REMARK   40  A    between atoms: _83  and  _84
REMARK   41  A    between atoms: _87  and  _89
REMARK   42  A    between atoms: _89  and  _90
REMARK   43  A    between atoms: _93  and  _95
REMARK   44  A    between atoms: _95  and  _96
REMARK   45  A    between atoms: _95  and  _98
REMARK   46  A    between atoms: _98  and  _99
REMARK   47  A    between atoms: _104  and  _106
REMARK   48  A    between atoms: _106  and  _107
REMARK   49  A    between atoms: _106  and  _109
REMARK   50  A    between atoms: _109  and  _110
REMARK   51  A    between atoms: _113  and  _115
REMARK   52  A    between atoms: _115  and  _116
REMARK   53  A    between atoms: _118  and  _120
REMARK   54  A    between atoms: _120  and  _121
REMARK   55  A    between atoms: _120  and  _123
REMARK   56  A    between atoms: _123  and  _124
REMARK   57  A    between atoms: _126  and  _128
REMARK   58  A    between atoms: _128  and  _129
REMARK   59  A    between atoms: _132  and  _134
REMARK   60  A    between atoms: _134  and  _135
REMARK   61  A    between atoms: _137  and  _139
REMARK   62  A    between atoms: _139  and  _140
REMARK   63  A    between atoms: _142  and  _144
REMARK   64  A    between atoms: _144  and  _145
REMARK   65  A    between atoms: _144  and  _147
REMARK   66  A    between atoms: _147  and  _148
REMARK   67  A    between atoms: _151  and  _153
REMARK   68  A    between atoms: _153  and  _154
REMARK   69  A    between atoms: _153  and  _156
REMARK   70  A    between atoms: _156  and  _157
REMARK   71  A    between atoms: _162  and  _164
REMARK   72  A    between atoms: _164  and  _165
REMARK   73  A    between atoms: _164  and  _167
REMARK   74  A    between atoms: _167  and  _168
REMARK   75  A    between atoms: _171  and  _173
REMARK   76  A    between atoms: _173  and  _174
REMARK   77  A    between atoms: _173  and  _176
REMARK   78  A    between atoms: _179  and  _181
REMARK   79  A    between atoms: _181  and  _182
REMARK   80  A    between atoms: _181  and  _184
REMARK   81  A    between atoms: _184  and  _185
REMARK   82  A    between atoms: _187  and  _189
REMARK   83  A    between atoms: _189  and  _190
REMARK   84  A    between atoms: _192  and  _194
REMARK   85  A    between atoms: _194  and  _195
REMARK   86  A    between atoms: _194  and  _197
REMARK   87  A    between atoms: _197  and  _198
REMARK   88  A    between atoms: _201  and  _203
REMARK   89  A    between atoms: _203  and  _204
REMARK   90  A    between atoms: _207  and  _209
REMARK   91  A    between atoms: _209  and  _210
REMARK   92  A    between atoms: _209  and  _212
REMARK   93  A    between atoms: _212  and  _213
REMARK   94  A    between atoms: _219  and  _221
REMARK   95  A    between atoms: _221  and  _222
REMARK   96  A    between atoms: _221  and  _224
REMARK   97  A    between atoms: _224  and  _225
REMARK   98  A    between atoms: _228  and  _230
REMARK   99  A    between atoms: _230  and  _231
REMARK  100  A    between atoms: _230  and  _233
REMARK  101  A    between atoms: _233  and  _234
REMARK  102  A    between atoms: _239  and  _241
REMARK  103  A    between atoms: _241  and  _242
REMARK  104  A    between atoms: _244  and  _246
REMARK  105  A    between atoms: _246  and  _247
REMARK  106  A    between atoms: _246  and  _249
REMARK  107  A    between atoms: _249  and  _250
REMARK  108  A    between atoms: _253  and  _255
REMARK  109  A    between atoms: _255  and  _256
REMARK  110  A    between atoms: _255  and  _258
REMARK  111  A    between atoms: _258  and  _259
REMARK  112  A    between atoms: _262  and  _264
REMARK  113  A    between atoms: _264  and  _265
REMARK  114  A    between atoms: _268  and  _270
REMARK  115  A    between atoms: _270  and  _271
REMARK  116  A    between atoms: _270  and  _273
REMARK  117  A    between atoms: _276  and  _278
REMARK  118  A    between atoms: _278  and  _279
REMARK  119  A    between atoms: _278  and  _281
REMARK  120  A    between atoms: _281  and  _282
REMARK  121  A    between atoms: _282  and  _283
REMARK  122  A    between atoms: _286  and  _288
REMARK  123  A    between atoms: _288  and  _289
REMARK  124  A    between atoms: _288  and  _291
REMARK  125  A    between atoms: _291  and  _292
REMARK  126  A    between atoms: _292  and  _293
REMARK  127  A    between atoms: _295  and  _297
REMARK  128  A    between atoms: _297  and  _298
REMARK  129  A    between atoms: _297  and  _300
REMARK  130  A    between atoms: _300  and  _301
REMARK  131  A    between atoms: _301  and  _302
REMARK  132  A    between atoms: _305  and  _307
REMARK  133  A    between atoms: _307  and  _308
REMARK  134  A    between atoms: _311  and  _313
REMARK  135  A    between atoms: _313  and  _314
REMARK  136  A    between atoms: _313  and  _316
REMARK  137  A    between atoms: _316  and  _317
REMARK  138  A    between atoms: _320  and  _322
REMARK  139  A    between atoms: _322  and  _323
REMARK  140  A    between atoms: _322  and  _325
REMARK  141  A    between atoms: _325  and  _326
REMARK  142  A    between atoms: _329  and  _331
REMARK  143  A    between atoms: _331  and  _332
REMARK  144  A    between atoms: _331  and  _334
REMARK  145  A    between atoms: _334  and  _335
REMARK  146  A    between atoms: _335  and  _336
REMARK  147  A    between atoms: _336  and  _337
REMARK  148  A    between atoms: _346  and  _348
REMARK  149  A    between atoms: _348  and  _349
REMARK  150  A    between atoms: _352  and  _354
REMARK  151  A    between atoms: _354  and  _355
REMARK  152  A    between atoms: _354  and  _357
REMARK  153  A    between atoms: _357  and  _358
REMARK  154  A    between atoms: _361  and  _363
REMARK  155  A    between atoms: _363  and  _364
REMARK  156  A    between atoms: _363  and  _366
REMARK  157  A    between atoms: _366  and  _367
REMARK  158  A    between atoms: _369  and  _371
REMARK  159  A    between atoms: _371  and  _372
REMARK  160  A    between atoms: _371  and  _374
REMARK  161  A    between atoms: _374  and  _375
REMARK  162  A    between atoms: _378  and  _380
REMARK  163  A    between atoms: _380  and  _381
REMARK  164  A    between atoms: _380  and  _383
REMARK  165  A    between atoms: _386  and  _388
REMARK  166  A    between atoms: _388  and  _389
REMARK  167  A    between atoms: _392  and  _394
REMARK  168  A    between atoms: _394  and  _395
REMARK  169  A    between atoms: _394  and  _397
REMARK  170  A    between atoms: _397  and  _398
REMARK  171  A    between atoms: _401  and  _403
REMARK  172  A    between atoms: _403  and  _404
REMARK  173  A    between atoms: _403  and  _406
REMARK  174  A    between atoms: _406  and  _407
REMARK  175  A    between atoms: _409  and  _411
REMARK  176  A    between atoms: _411  and  _412
REMARK  177  A    between atoms: _411  and  _414
REMARK  178  A    between atoms: _414  and  _415
REMARK  179  A    between atoms: _420  and  _422
REMARK  180  A    between atoms: _422  and  _423
REMARK  181  A    between atoms: _422  and  _425
REMARK  182  A    between atoms: _425  and  _426
REMARK  183  A    between atoms: _428  and  _430
REMARK  184  A    between atoms: _430  and  _431
REMARK  185  A    between atoms: _430  and  _433
REMARK  186  A    between atoms: _433  and  _434
REMARK  187  A    between atoms: _440  and  _442
REMARK  188  A    between atoms: _442  and  _443
REMARK  189  A    between atoms: _442  and  _445
REMARK  190  A    between atoms: _445  and  _446
REMARK  191  A    between atoms: _449  and  _451
REMARK  192  A    between atoms: _451  and  _452
REMARK  193  A    between atoms: _451  and  _454
REMARK  194  A    between atoms: _454  and  _455
REMARK  195  A    between atoms: _458  and  _460
REMARK  196  A    between atoms: _460  and  _461
REMARK  197  A    between atoms: _464  and  _466
REMARK  198  A    between atoms: _466  and  _467
REMARK  199  A    between atoms: _466  and  _469
REMARK  200  A    between atoms: _469  and  _470
REMARK  201  A    between atoms: _473  and  _475
REMARK  202  A    between atoms: _475  and  _476
REMARK  203  A    between atoms: _475  and  _478
REMARK  204  A    between atoms: _481  and  _483
REMARK  205  A    between atoms: _483  and  _484
REMARK  206  A    between atoms: _487  and  _489
REMARK  207  A    between atoms: _489  and  _490
REMARK  208  A    between atoms: _489  and  _492
REMARK  209  A    between atoms: _492  and  _493
REMARK  210  A    between atoms: _499  and  _501
REMARK  211  A    between atoms: _501  and  _502
REMARK  212  A    between atoms: _501  and  _504
REMARK  213  A    between atoms: _504  and  _505
REMARK  214  A    between atoms: _510  and  _511
REMARK  215  A    between atoms: _513  and  _515
REMARK  216  A    between atoms: _515  and  _516
REMARK  217  A    between atoms: _515  and  _518
REMARK  218  A    between atoms: _518  and  _519
REMARK  219  A    between atoms: _523  and  _524
REMARK                            x       y       z     vdW  Elec       q    Type
REMARK                         _______ _______ _______ _____ _____    ______ ____
ROOT
ATOM      1  CA  SER A   4      61.346  74.220  16.835  0.00  0.00    +0.178 C 
ENDROOT
BRANCH   1   3
ATOM      2  C   GLY A   3      63.604  74.793  17.600  0.00  0.00    +0.243 C 
ATOM      3  N   SER A   4      62.443  74.182  17.793  0.00  0.00    -0.295 N 
ATOM      4  H   SER A   4      62.308  73.647  18.675  0.00  0.00    +0.150 HD
ATOM      5  O   GLY A   3      63.848  75.486  16.615  0.00  0.00    -0.273 OA
BRANCH   2   6
ATOM      6  CA  GLY A   3      64.627  74.619  18.708  0.00  0.00    +0.176 C 
BRANCH   6   9
ATOM      7  C   THR A   2      66.042  76.157  19.890  0.00  0.00    +0.243 C 
ATOM      8  O   THR A   2      65.463  75.870  20.940  0.00  0.00    -0.273 OA
ATOM      9  N   GLY A   3      65.699  75.611  18.735  0.00  0.00    -0.295 N 
ATOM     10  H   GLY A   3      66.186  75.884  17.858  0.00  0.00    +0.150 HD
BRANCH   7  11
ATOM     11  CA  THR A   2      67.201  77.181  19.859  0.00  0.00    +0.176 C 
BRANCH  11  13
ATOM     12  C   ASN A   1      66.989  79.303  21.111  0.00  0.00    +0.239 C 
ATOM     13  N   THR A   2      67.285  78.008  21.058  0.00  0.00    -0.295 N 
ATOM     14  H   THR A   2      67.600  77.550  21.937  0.00  0.00    +0.150 HD
ATOM     15  O   ASN A   1      66.577  79.949  20.152  0.00  0.00    -0.274 OA
BRANCH  12  16
ATOM     16  CA  ASN A   1      67.204  79.968  22.472  0.00  0.00    +0.154 C 
BRANCH  16  17
ATOM     17  N   ASN A   1      68.236  81.000  22.286  0.00  0.00    -0.238 NA
ATOM     18  H   ASN A   1      67.961  81.927  21.902  0.00  0.00    +0.142 HD
ENDBRANCH  16  17
BRANCH  16  19
ATOM     19  CB  ASN A   1      65.907  80.601  22.975  0.00  0.00    +0.111 C 
BRANCH  19  20
ATOM     20  CG  ASN A   1      64.773  79.596  23.094  0.00  0.00    +0.221 C 
ATOM     21  ND2 ASN A   1      65.099  78.351  23.479  0.00  0.00    -0.329 N 
ATOM     22 HD21 ASN A   1      66.092  78.109  23.668  0.00  0.00    +0.145 HD
ATOM     23 HD22 ASN A   1      64.358  77.629  23.588  0.00  0.00    +0.145 HD
ATOM     24  OD1 ASN A   1      63.617  79.938  22.857  0.00  0.00    -0.275 OA
ENDBRANCH  19  20
ENDBRANCH  16  19
ENDBRANCH  12  16
ENDBRANCH  11  13
BRANCH  11  25
ATOM     25  CB  THR A   2      68.559  76.424  19.667  0.00  0.00    +0.137 C 
ATOM     26  CG2 THR A   2      68.767  75.365  20.751  0.00  0.00    +0.034 C 
BRANCH  25  27
ATOM     27  OG1 THR A   2      68.575  75.756  18.409  0.00  0.00    -0.382 OA
ATOM     28  HG1 THR A   2      68.468  76.420  17.683  0.00  0.00    +0.210 HD
ENDBRANCH  25  27
ENDBRANCH  11  25
ENDBRANCH   7  11
ENDBRANCH   6   9
ENDBRANCH   2   6
ENDBRANCH   1   3
BRANCH   1  29
ATOM     29  C   SER A   4      60.275  75.210  17.248  0.00  0.00    +0.243 C 
ATOM     30  O   SER A   4      60.286  75.706  18.371  0.00  0.00    -0.273 OA
ATOM     31  N   ALA A   5      59.354  75.474  16.326  0.00  0.00    -0.297 N 
ATOM     32  H   ALA A   5      59.439  75.023  15.393  0.00  0.00    +0.150 HD
BRANCH  31  33
ATOM     33  CA  ALA A   5      58.229  76.370  16.569  0.00  0.00    +0.149 C 
ATOM     34  CB  ALA A   5      58.657  77.861  16.486  0.00  0.00    +0.031 C 
BRANCH  33  35
ATOM     35  C   ALA A   5      57.163  76.122  15.540  0.00  0.00    +0.241 C 
ATOM     36  N   GLY A   6      55.939  76.549  15.870  0.00  0.00    -0.295 N 
ATOM     37  H   GLY A   6      55.781  76.962  16.812  0.00  0.00    +0.150 HD
ATOM     38  O   ALA A   5      57.446  75.572  14.473  0.00  0.00    -0.273 OA
BRANCH  36  39
ATOM     39  CA  GLY A   6      54.830  76.450  14.947  0.00  0.00    +0.176 C 
BRANCH  39  40
ATOM     40  C   GLY A   6      54.872  77.739  14.136  0.00  0.00    +0.243 C 
ATOM     41  O   GLY A   6      54.916  78.835  14.707  0.00  0.00    -0.273 OA
ATOM     42  N   GLY A   7      54.876  77.630  12.806  0.00  0.00    -0.295 N 
ATOM     43  H   GLY A   7      54.837  76.691  12.360  0.00  0.00    +0.150 HD
BRANCH  42  44
ATOM     44  CA  GLY A   7      54.935  78.831  11.980  0.00  0.00    +0.176 C 
BRANCH  44  45
ATOM     45  C   GLY A   7      53.603  79.539  11.855  0.00  0.00    +0.243 C 
ATOM     46  N   LEU A   8      53.593  80.865  12.005  0.00  0.00    -0.298 N 
ATOM     47  H   LEU A   8      54.480  81.367  12.214  0.00  0.00    +0.150 HD
ATOM     48  O   GLY A   7      52.580  78.884  11.647  0.00  0.00    -0.273 OA
BRANCH  46  49
ATOM     49  CA  LEU A   8      52.350  81.616  11.879  0.00  0.00    +0.137 C 
BRANCH  49  50
ATOM     50  C   LEU A   8      52.379  82.622  10.697  0.00  0.00    +0.227 C 
ATOM     51  O   LEU A   8      51.346  82.899  10.089  0.00  0.00    -0.286 OA
ENDBRANCH  49  50
BRANCH  49  52
ATOM     52  CB  LEU A   8      52.051  82.340  13.186  0.00  0.00    +0.028 C 
BRANCH  52  53
ATOM     53  CG  LEU A   8      51.818  81.421  14.396  0.00  0.00    +0.002 C 
ATOM     54  CD2 LEU A   8      51.847  82.264  15.681  0.00  0.00    +0.000 C 
ATOM     55  CD1 LEU A   8      50.488  80.678  14.234  0.00  0.00    +0.000 C 
ENDBRANCH  52  53
ENDBRANCH  49  52
ENDBRANCH  46  49
ENDBRANCH  44  45
ENDBRANCH  42  44
ENDBRANCH  39  40
ENDBRANCH  36  39
ENDBRANCH  33  35
ENDBRANCH  31  33
ENDBRANCH   1  29
BRANCH   1  56
ATOM     56  CB  SER A   4      60.707  72.815  16.698  0.00  0.00    +0.166 C 
BRANCH  56  57
ATOM     57  OG  SER A   4      60.310  72.278  17.963  0.00  0.00    -0.380 OA
ATOM     58  H   SER A   4      61.103  72.201  18.551  0.00  0.00    +0.211 HD
ENDBRANCH  56  57
ENDBRANCH   1  56
TORSDOF 24
REMARK  Name = ../refined-set-2016/1nc1/1nc1_pocket.pdb
REMARK  219 active torsions:
REMARK  status: ('A' for Active; 'I' for Inactive)
REMARK    1  A    between atoms: _1  and  _3
REMARK    2  A    between atoms: _3  and  _4
REMARK    3  A    between atoms: _6  and  _8
REMARK    4  A    between atoms: _8  and  _9
REMARK    5  A    between atoms: _12  and  _14
REMARK    6  A    between atoms: _14  and  _15
REMARK    7  A    between atoms: _14  and  _17
REMARK    8  A    between atoms: _17  and  _18
REMARK    9  A    between atoms: _18  and  _19
REMARK   10  A    between atoms: _21  and  _23
REMARK   11  A    between atoms: _23  and  _24
REMARK   12  A    between atoms: _23  and  _26
REMARK   13  A    between atoms: _26  and  _27
REMARK   14  A    between atoms: _27  and  _28
REMARK   15  A    between atoms: _31  and  _33
REMARK   16  A    between atoms: _33  and  _34
REMARK   17  A    between atoms: _33  and  _36
REMARK   18  A    between atoms: _36  and  _37
REMARK   19  A    between atoms: _37  and  _38
REMARK   20  A    between atoms: _41  and  _43
REMARK   21  A    between atoms: _43  and  _44
REMARK   22  A    between atoms: _43  and  _46
REMARK   23  A    between atoms: _46  and  _47
REMARK   24  A    between atoms: _49  and  _51
REMARK   25  A    between atoms: _51  and  _52
REMARK   26  A    between atoms: _54  and  _56
REMARK   27  A    between atoms: _56  and  _57
REMARK   28  A    between atoms: _56  and  _59
REMARK   29  A    between atoms: _59  and  _60
REMARK   30  A    between atoms: _63  and  _65
REMARK   31  A    between atoms: _65  and  _66
REMARK   32  A    between atoms: _68  and  _70
REMARK   33  A    between atoms: _70  and  _71
REMARK   34  A    between atoms: _70  and  _73
REMARK   35  A    between atoms: _73  and  _74
REMARK   36  A    between atoms: _74  and  _75
REMARK   37  A    between atoms: _75  and  _76
REMARK   38  A    between atoms: _76  and  _77
REMARK   39  A    between atoms: _81  and  _83
REMARK   40  A    between atoms: _83  and  _84
REMARK   41  A    between atoms: _87  and  _89
REMARK   42  A    between atoms: _89  and  _90
REMARK   43  A    between atoms: _93  and  _95
REMARK   44  A    between atoms: _95  and  _96
REMARK   45  A    between atoms: _95  and  _98
REMARK   46  A    between atoms: _98  and  _99
REMARK   47  A    between atoms: _104  and  _106
REMARK   48  A    between atoms: _106  and  _107
REMARK   49  A    between atoms: _106  and  _109
REMARK   50  A    between atoms: _109  and  _110
REMARK   51  A    between atoms: _113  and  _115
REMARK   52  A    between atoms: _115  and  _116
REMARK   53  A    between atoms: _118  and  _120
REMARK   54  A    between atoms: _120  and  _121
REMARK   55  A    between atoms: _120  and  _123
REMARK   56  A    between atoms: _123  and  _124
REMARK   57  A    between atoms: _126  and  _128
REMARK   58  A    between atoms: _128  and  _129
REMARK   59  A    between atoms: _132  and  _134
REMARK   60  A    between atoms: _134  and  _135
REMARK   61  A    between atoms: _137  and  _139
REMARK   62  A    between atoms: _139  and  _140
REMARK   63  A    between atoms: _142  and  _144
REMARK   64  A    between atoms: _144  and  _145
REMARK   65  A    between atoms: _144  and  _147
REMARK   66  A    between atoms: _147  and  _148
REMARK   67  A    between atoms: _151  and  _153
REMARK   68  A    between atoms: _153  and  _154
REMARK   69  A    between atoms: _153  and  _156
REMARK   70  A    between atoms: _156  and  _157
REMARK   71  A    between atoms: _162  and  _164
REMARK   72  A    between atoms: _164  and  _165
REMARK   73  A    between atoms: _164  and  _167
REMARK   74  A    between atoms: _167  and  _168
REMARK   75  A    between atoms: _171  and  _173
REMARK   76  A    between atoms: _173  and  _174
REMARK   77  A    between atoms: _173  and  _176
REMARK   78  A    between atoms: _179  and  _181
REMARK   79  A    between atoms: _181  and  _182
REMARK   80  A    between atoms: _181  and  _184
REMARK   81  A    between atoms: _184  and  _185
REMARK   82  A    between atoms: _187  and  _189
REMARK   83  A    between atoms: _189  and  _190
REMARK   84  A    between atoms: _192  and  _194
REMARK   85  A    between atoms: _194  and  _195
REMARK   86  A    between atoms: _194  and  _197
REMARK   87  A    between atoms: _197  and  _198
REMARK   88  A    between atoms: _201  and  _203
REMARK   89  A    between atoms: _203  and  _204
REMARK   90  A    between atoms: _207  and  _209
REMARK   91  A    between atoms: _209  and  _210
REMARK   92  A    between atoms: _209  and  _212
REMARK   93  A    between atoms: _212  and  _213
REMARK   94  A    between atoms: _219  and  _221
REMARK   95  A    between atoms: _221  and  _222
REMARK   96  A    between atoms: _221  and  _224
REMARK   97  A    between atoms: _224  and  _225
REMARK   98  A    between atoms: _228  and  _230
REMARK   99  A    between atoms: _230  and  _231
REMARK  100  A    between atoms: _230  and  _233
REMARK  101  A    between atoms: _233  and  _234
REMARK  102  A    between atoms: _239  and  _241
REMARK  103  A    between atoms: _241  and  _242
REMARK  104  A    between atoms: _244  and  _246
REMARK  105  A    between atoms: _246  and  _247
REMARK  106  A    between atoms: _246  and  _249
REMARK  107  A    between atoms: _249  and  _250
REMARK  108  A    between atoms: _253  and  _255
REMARK  109  A    between atoms: _255  and  _256
REMARK  110  A    between atoms: _255  and  _258
REMARK  111  A    between atoms: _258  and  _259
REMARK  112  A    between atoms: _262  and  _264
REMARK  113  A    between atoms: _264  and  _265
REMARK  114  A    between atoms: _268  and  _270
REMARK  115  A    between atoms: _270  and  _271
REMARK  116  A    between atoms: _270  and  _273
REMARK  117  A    between atoms: _276  and  _278
REMARK  118  A    between atoms: _278  and  _279
REMARK  119  A    between atoms: _278  and  _281
REMARK  120  A    between atoms: _281  and  _282
REMARK  121  A    between atoms: _282  and  _283
REMARK  122  A    between atoms: _286  and  _288
REMARK  123  A    between atoms: _288  and  _289
REMARK  124  A    between atoms: _288  and  _291
REMARK  125  A    between atoms: _291  and  _292
REMARK  126  A    between atoms: _292  and  _293
REMARK  127  A    between atoms: _295  and  _297
REMARK  128  A    between atoms: _297  and  _298
REMARK  129  A    between atoms: _297  and  _300
REMARK  130  A    between atoms: _300  and  _301
REMARK  131  A    between atoms: _301  and  _302
REMARK  132  A    between atoms: _305  and  _307
REMARK  133  A    between atoms: _307  and  _308
REMARK  134  A    between atoms: _311  and  _313
REMARK  135  A    between atoms: _313  and  _314
REMARK  136  A    between atoms: _313  and  _316
REMARK  137  A    between atoms: _316  and  _317
REMARK  138  A    between atoms: _320  and  _322
REMARK  139  A    between atoms: _322  and  _323
REMARK  140  A    between atoms: _322  and  _325
REMARK  141  A    between atoms: _325  and  _326
REMARK  142  A    between atoms: _329  and  _331
REMARK  143  A    between atoms: _331  and  _332
REMARK  144  A    between atoms: _331  and  _334
REMARK  145  A    between atoms: _334  and  _335
REMARK  146  A    between atoms: _335  and  _336
REMARK  147  A    between atoms: _336  and  _337
REMARK  148  A    between atoms: _346  and  _348
REMARK  149  A    between atoms: _348  and  _349
REMARK  150  A    between atoms: _352  and  _354
REMARK  151  A    between atoms: _354  and  _355
REMARK  152  A    between atoms: _354  and  _357
REMARK  153  A    between atoms: _357  and  _358
REMARK  154  A    between atoms: _361  and  _363
REMARK  155  A    between atoms: _363  and  _364
REMARK  156  A    between atoms: _363  and  _366
REMARK  157  A    between atoms: _366  and  _367
REMARK  158  A    between atoms: _369  and  _371
REMARK  159  A    between atoms: _371  and  _372
REMARK  160  A    between atoms: _371  and  _374
REMARK  161  A    between atoms: _374  and  _375
REMARK  162  A    between atoms: _378  and  _380
REMARK  163  A    between atoms: _380  and  _381
REMARK  164  A    between atoms: _380  and  _383
REMARK  165  A    between atoms: _386  and  _388
REMARK  166  A    between atoms: _388  and  _389
REMARK  167  A    between atoms: _392  and  _394
REMARK  168  A    between atoms: _394  and  _395
REMARK  169  A    between atoms: _394  and  _397
REMARK  170  A    between atoms: _397  and  _398
REMARK  171  A    between atoms: _401  and  _403
REMARK  172  A    between atoms: _403  and  _404
REMARK  173  A    between atoms: _403  and  _406
REMARK  174  A    between atoms: _406  and  _407
REMARK  175  A    between atoms: _409  and  _411
REMARK  176  A    between atoms: _411  and  _412
REMARK  177  A    between atoms: _411  and  _414
REMARK  178  A    between atoms: _414  and  _415
REMARK  179  A    between atoms: _420  and  _422
REMARK  180  A    between atoms: _422  and  _423
REMARK  181  A    between atoms: _422  and  _425
REMARK  182  A    between atoms: _425  and  _426
REMARK  183  A    between atoms: _428  and  _430
REMARK  184  A    between atoms: _430  and  _431
REMARK  185  A    between atoms: _430  and  _433
REMARK  186  A    between atoms: _433  and  _434
REMARK  187  A    between atoms: _440  and  _442
REMARK  188  A    between atoms: _442  and  _443
REMARK  189  A    between atoms: _442  and  _445
REMARK  190  A    between atoms: _445  and  _446
REMARK  191  A    between atoms: _449  and  _451
REMARK  192  A    between atoms: _451  and  _452
REMARK  193  A    between atoms: _451  and  _454
REMARK  194  A    between atoms: _454  and  _455
REMARK  195  A    between atoms: _458  and  _460
REMARK  196  A    between atoms: _460  and  _461
REMARK  197  A    between atoms: _464  and  _466
REMARK  198  A    between atoms: _466  and  _467
REMARK  199  A    between atoms: _466  and  _469
REMARK  200  A    between atoms: _469  and  _470
REMARK  201  A    between atoms: _473  and  _475
REMARK  202  A    between atoms: _475  and  _476
REMARK  203  A    between atoms: _475  and  _478
REMARK  204  A    between atoms: _481  and  _483
REMARK  205  A    between atoms: _483  and  _484
REMARK  206  A    between atoms: _487  and  _489
REMARK  207  A    between atoms: _489  and  _490
REMARK  208  A    between atoms: _489  and  _492
REMARK  209  A    between atoms: _492  and  _493
REMARK  210  A    between atoms: _499  and  _501
REMARK  211  A    between atoms: _501  and  _502
REMARK  212  A    between atoms: _501  and  _504
REMARK  213  A    between atoms: _504  and  _505
REMARK  214  A    between atoms: _510  and  _511
REMARK  215  A    between atoms: _513  and  _515
REMARK  216  A    between atoms: _515  and  _516
REMARK  217  A    between atoms: _515  and  _518
REMARK  218  A    between atoms: _518  and  _519
REMARK  219  A    between atoms: _523  and  _524
REMARK                            x       y       z     vdW  Elec       q    Type
REMARK                         _______ _______ _______ _____ _____    ______ ____
ROOT
ATOM      1  CB  HIS A   1      50.046  83.826  23.129  0.00  0.00    +0.072 C 
ENDROOT
BRANCH   1   2
ATOM      2  CG  HIS A   1      50.152  82.324  23.236  0.00  0.00    +0.082 A 
ATOM      3  ND1 HIS A   1      49.135  81.531  23.723  0.00  0.00    -0.227 NA
ATOM      4  CE1 HIS A   1      49.507  80.260  23.678  0.00  0.00    +0.199 A 
ATOM      5  NE2 HIS A   1      50.732  80.199  23.179  0.00  0.00    -0.221 NA
ATOM      6  CD2 HIS A   1      51.158  81.476  22.899  0.00  0.00    +0.115 A 
ENDBRANCH   1   2
BRANCH   1   7
ATOM      7  CA  HIS A   1      50.120  84.567  24.473  0.00  0.00    +0.139 C 
BRANCH   7   8
ATOM      8  N   HIS A   1      51.433  84.415  25.099  0.00  0.00    -0.239 NA
ATOM      9  H   HIS A   1      51.982  83.539  24.987  0.00  0.00    +0.142 HD
ENDBRANCH   7   8
BRANCH   7  10
ATOM     10  C   HIS A   1      49.029  84.074  25.424  0.00  0.00    +0.224 C 
ATOM     11  O   HIS A   1      47.842  84.276  25.163  0.00  0.00    -0.287 OA
ENDBRANCH   7  10
ENDBRANCH   1   7
TORSDOF 4
REMARK  Name = ../refined-set-2016/1nc1/1nc1_pocket.pdb
REMARK  219 active torsions:
REMARK  status: ('A' for Active; 'I' for Inactive)
REMARK    1  A    between atoms: _1  and  _3
REMARK    2  A    between atoms: _3  and  _4
REMARK    3  A    between atoms: _6  and  _8
REMARK    4  A    between atoms: _8  and  _9
REMARK    5  A    between atoms: _12  and  _14
REMARK    6  A    between atoms: _14  and  _15
REMARK    7  A    between atoms: _14  and  _17
REMARK    8  A    between atoms: _17  and  _18
REMARK    9  A    between atoms: _18  and  _19
REMARK   10  A    between atoms: _21  and  _23
REMARK   11  A    between atoms: _23  and  _24
REMARK   12  A    between atoms: _23  and  _26
REMARK   13  A    between atoms: _26  and  _27
REMARK   14  A    between atoms: _27  and  _28
REMARK   15  A    between atoms: _31  and  _33
REMARK   16  A    between atoms: _33  and  _34
REMARK   17  A    between atoms: _33  and  _36
REMARK   18  A    between atoms: _36  and  _37
REMARK   19  A    between atoms: _37  and  _38
REMARK   20  A    between atoms: _41  and  _43
REMARK   21  A    between atoms: _43  and  _44
REMARK   22  A    between atoms: _43  and  _46
REMARK   23  A    between atoms: _46  and  _47
REMARK   24  A    between atoms: _49  and  _51
REMARK   25  A    between atoms: _51  and  _52
REMARK   26  A    between atoms: _54  and  _56
REMARK   27  A    between atoms: _56  and  _57
REMARK   28  A    between atoms: _56  and  _59
REMARK   29  A    between atoms: _59  and  _60
REMARK   30  A    between atoms: _63  and  _65
REMARK   31  A    between atoms: _65  and  _66
REMARK   32  A    between atoms: _68  and  _70
REMARK   33  A    between atoms: _70  and  _71
REMARK   34  A    between atoms: _70  and  _73
REMARK   35  A    between atoms: _73  and  _74
REMARK   36  A    between atoms: _74  and  _75
REMARK   37  A    between atoms: _75  and  _76
REMARK   38  A    between atoms: _76  and  _77
REMARK   39  A    between atoms: _81  and  _83
REMARK   40  A    between atoms: _83  and  _84
REMARK   41  A    between atoms: _87  and  _89
REMARK   42  A    between atoms: _89  and  _90
REMARK   43  A    between atoms: _93  and  _95
REMARK   44  A    between atoms: _95  and  _96
REMARK   45  A    between atoms: _95  and  _98
REMARK   46  A    between atoms: _98  and  _99
REMARK   47  A    between atoms: _104  and  _106
REMARK   48  A    between atoms: _106  and  _107
REMARK   49  A    between atoms: _106  and  _109
REMARK   50  A    between atoms: _109  and  _110
REMARK   51  A    between atoms: _113  and  _115
REMARK   52  A    between atoms: _115  and  _116
REMARK   53  A    between atoms: _118  and  _120
REMARK   54  A    between atoms: _120  and  _121
REMARK   55  A    between atoms: _120  and  _123
REMARK   56  A    between atoms: _123  and  _124
REMARK   57  A    between atoms: _126  and  _128
REMARK   58  A    between atoms: _128  and  _129
REMARK   59  A    between atoms: _132  and  _134
REMARK   60  A    between atoms: _134  and  _135
REMARK   61  A    between atoms: _137  and  _139
REMARK   62  A    between atoms: _139  and  _140
REMARK   63  A    between atoms: _142  and  _144
REMARK   64  A    between atoms: _144  and  _145
REMARK   65  A    between atoms: _144  and  _147
REMARK   66  A    between atoms: _147  and  _148
REMARK   67  A    between atoms: _151  and  _153
REMARK   68  A    between atoms: _153  and  _154
REMARK   69  A    between atoms: _153  and  _156
REMARK   70  A    between atoms: _156  and  _157
REMARK   71  A    between atoms: _162  and  _164
REMARK   72  A    between atoms: _164  and  _165
REMARK   73  A    between atoms: _164  and  _167
REMARK   74  A    between atoms: _167  and  _168
REMARK   75  A    between atoms: _171  and  _173
REMARK   76  A    between atoms: _173  and  _174
REMARK   77  A    between atoms: _173  and  _176
REMARK   78  A    between atoms: _179  and  _181
REMARK   79  A    between atoms: _181  and  _182
REMARK   80  A    between atoms: _181  and  _184
REMARK   81  A    between atoms: _184  and  _185
REMARK   82  A    between atoms: _187  and  _189
REMARK   83  A    between atoms: _189  and  _190
REMARK   84  A    between atoms: _192  and  _194
REMARK   85  A    between atoms: _194  and  _195
REMARK   86  A    between atoms: _194  and  _197
REMARK   87  A    between atoms: _197  and  _198
REMARK   88  A    between atoms: _201  and  _203
REMARK   89  A    between atoms: _203  and  _204
REMARK   90  A    between atoms: _207  and  _209
REMARK   91  A    between atoms: _209  and  _210
REMARK   92  A    between atoms: _209  and  _212
REMARK   93  A    between atoms: _212  and  _213
REMARK   94  A    between atoms: _219  and  _221
REMARK   95  A    between atoms: _221  and  _222
REMARK   96  A    between atoms: _221  and  _224
REMARK   97  A    between atoms: _224  and  _225
REMARK   98  A    between atoms: _228  and  _230
REMARK   99  A    between atoms: _230  and  _231
REMARK  100  A    between atoms: _230  and  _233
REMARK  101  A    between atoms: _233  and  _234
REMARK  102  A    between atoms: _239  and  _241
REMARK  103  A    between atoms: _241  and  _242
REMARK  104  A    between atoms: _244  and  _246
REMARK  105  A    between atoms: _246  and  _247
REMARK  106  A    between atoms: _246  and  _249
REMARK  107  A    between atoms: _249  and  _250
REMARK  108  A    between atoms: _253  and  _255
REMARK  109  A    between atoms: _255  and  _256
REMARK  110  A    between atoms: _255  and  _258
REMARK  111  A    between atoms: _258  and  _259
REMARK  112  A    between atoms: _262  and  _264
REMARK  113  A    between atoms: _264  and  _265
REMARK  114  A    between atoms: _268  and  _270
REMARK  115  A    between atoms: _270  and  _271
REMARK  116  A    between atoms: _270  and  _273
REMARK  117  A    between atoms: _276  and  _278
REMARK  118  A    between atoms: _278  and  _279
REMARK  119  A    between atoms: _278  and  _281
REMARK  120  A    between atoms: _281  and  _282
REMARK  121  A    between atoms: _282  and  _283
REMARK  122  A    between atoms: _286  and  _288
REMARK  123  A    between atoms: _288  and  _289
REMARK  124  A    between atoms: _288  and  _291
REMARK  125  A    between atoms: _291  and  _292
REMARK  126  A    between atoms: _292  and  _293
REMARK  127  A    between atoms: _295  and  _297
REMARK  128  A    between atoms: _297  and  _298
REMARK  129  A    between atoms: _297  and  _300
REMARK  130  A    between atoms: _300  and  _301
REMARK  131  A    between atoms: _301  and  _302
REMARK  132  A    between atoms: _305  and  _307
REMARK  133  A    between atoms: _307  and  _308
REMARK  134  A    between atoms: _311  and  _313
REMARK  135  A    between atoms: _313  and  _314
REMARK  136  A    between atoms: _313  and  _316
REMARK  137  A    between atoms: _316  and  _317
REMARK  138  A    between atoms: _320  and  _322
REMARK  139  A    between atoms: _322  and  _323
REMARK  140  A    between atoms: _322  and  _325
REMARK  141  A    between atoms: _325  and  _326
REMARK  142  A    between atoms: _329  and  _331
REMARK  143  A    between atoms: _331  and  _332
REMARK  144  A    between atoms: _331  and  _334
REMARK  145  A    between atoms: _334  and  _335
REMARK  146  A    between atoms: _335  and  _336
REMARK  147  A    between atoms: _336  and  _337
REMARK  148  A    between atoms: _346  and  _348
REMARK  149  A    between atoms: _348  and  _349
REMARK  150  A    between atoms: _352  and  _354
REMARK  151  A    between atoms: _354  and  _355
REMARK  152  A    between atoms: _354  and  _357
REMARK  153  A    between atoms: _357  and  _358
REMARK  154  A    between atoms: _361  and  _363
REMARK  155  A    between atoms: _363  and  _364
REMARK  156  A    between atoms: _363  and  _366
REMARK  157  A    between atoms: _366  and  _367
REMARK  158  A    between atoms: _369  and  _371
REMARK  159  A    between atoms: _371  and  _372
REMARK  160  A    between atoms: _371  and  _374
REMARK  161  A    between atoms: _374  and  _375
REMARK  162  A    between atoms: _378  and  _380
REMARK  163  A    between atoms: _380  and  _381
REMARK  164  A    between atoms: _380  and  _383
REMARK  165  A    between atoms: _386  and  _388
REMARK  166  A    between atoms: _388  and  _389
REMARK  167  A    between atoms: _392  and  _394
REMARK  168  A    between atoms: _394  and  _395
REMARK  169  A    between atoms: _394  and  _397
REMARK  170  A    between atoms: _397  and  _398
REMARK  171  A    between atoms: _401  and  _403
REMARK  172  A    between atoms: _403  and  _404
REMARK  173  A    between atoms: _403  and  _406
REMARK  174  A    between atoms: _406  and  _407
REMARK  175  A    between atoms: _409  and  _411
REMARK  176  A    between atoms: _411  and  _412
REMARK  177  A    between atoms: _411  and  _414
REMARK  178  A    between atoms: _414  and  _415
REMARK  179  A    between atoms: _420  and  _422
REMARK  180  A    between atoms: _422  and  _423
REMARK  181  A    between atoms: _422  and  _425
REMARK  182  A    between atoms: _425  and  _426
REMARK  183  A    between atoms: _428  and  _430
REMARK  184  A    between atoms: _430  and  _431
REMARK  185  A    between atoms: _430  and  _433
REMARK  186  A    between atoms: _433  and  _434
REMARK  187  A    between atoms: _440  and  _442
REMARK  188  A    between atoms: _442  and  _443
REMARK  189  A    between atoms: _442  and  _445
REMARK  190  A    between atoms: _445  and  _446
REMARK  191  A    between atoms: _449  and  _451
REMARK  192  A    between atoms: _451  and  _452
REMARK  193  A    between atoms: _451  and  _454
REMARK  194  A    between atoms: _454  and  _455
REMARK  195  A    between atoms: _458  and  _460
REMARK  196  A    between atoms: _460  and  _461
REMARK  197  A    between atoms: _464  and  _466
REMARK  198  A    between atoms: _466  and  _467
REMARK  199  A    between atoms: _466  and  _469
REMARK  200  A    between atoms: _469  and  _470
REMARK  201  A    between atoms: _473  and  _475
REMARK  202  A    between atoms: _475  and  _476
REMARK  203  A    between atoms: _475  and  _478
REMARK  204  A    between atoms: _481  and  _483
REMARK  205  A    between atoms: _483  and  _484
REMARK  206  A    between atoms: _487  and  _489
REMARK  207  A    between atoms: _489  and  _490
REMARK  208  A    between atoms: _489  and  _492
REMARK  209  A    between atoms: _492  and  _493
REMARK  210  A    between atoms: _499  and  _501
REMARK  211  A    between atoms: _501  and  _502
REMARK  212  A    between atoms: _501  and  _504
REMARK  213  A    between atoms: _504  and  _505
REMARK  214  A    between atoms: _510  and  _511
REMARK  215  A    between atoms: _513  and  _515
REMARK  216  A    between atoms: _515  and  _516
REMARK  217  A    between atoms: _515  and  _518
REMARK  218  A    between atoms: _518  and  _519
REMARK  219  A    between atoms: _523  and  _524
REMARK                            x       y       z     vdW  Elec       q    Type
REMARK                         _______ _______ _______ _____ _____    ______ ____
ROOT
ATOM      1  C   ASP A   5      51.247  75.317  27.313  0.00  0.00    +0.241 C 
ATOM      2  O   ASP A   5      50.752  74.366  27.916  0.00  0.00    -0.273 OA
ATOM      3  N   ALA A   6      51.010  75.563  26.026  0.00  0.00    -0.297 N 
ATOM      4  H   ALA A   6      51.456  76.387  25.575  0.00  0.00    +0.150 HD
ENDROOT
BRANCH   3   5
ATOM      5  CA  ALA A   6      50.137  74.699  25.235  0.00  0.00    +0.149 C 
ATOM      6  CB  ALA A   6      48.706  75.303  25.132  0.00  0.00    +0.031 C 
BRANCH   5   7
ATOM      7  C   ALA A   6      50.677  74.451  23.837  0.00  0.00    +0.241 C 
ATOM      8  N   PHE A   7      50.530  73.214  23.368  0.00  0.00    -0.297 N 
ATOM      9  H   PHE A   7      50.103  72.483  23.972  0.00  0.00    +0.150 HD
ATOM     10  O   ALA A   6      51.240  75.350  23.208  0.00  0.00    -0.273 OA
BRANCH   8  11
ATOM     11  CA  PHE A   7      50.959  72.871  22.022  0.00  0.00    +0.153 C 
BRANCH  11  12
ATOM     12  C   PHE A   7      49.788  73.250  21.140  0.00  0.00    +0.241 C 
ATOM     13  O   PHE A   7      48.694  72.708  21.279  0.00  0.00    -0.273 OA
ATOM     14  N   ILE A   8      50.024  74.207  20.253  0.00  0.00    -0.297 N 
ATOM     15  H   ILE A   8      50.984  74.601  20.183  0.00  0.00    +0.150 HD
BRANCH  14  16
ATOM     16  CA  ILE A   8      48.985  74.726  19.372  0.00  0.00    +0.149 C 
BRANCH  16  17
ATOM     17  C   ILE A   8      48.729  73.773  18.195  0.00  0.00    +0.241 C 
ATOM     18  N   ASN A   9      47.479  73.342  18.103  0.00  0.00    -0.297 N 
ATOM     19  H   ASN A   9      46.771  73.729  18.759  0.00  0.00    +0.150 HD
ATOM     20  O   ILE A   8      49.626  73.449  17.406  0.00  0.00    -0.273 OA
BRANCH  18  21
ATOM     21  CA  ASN A   9      47.052  72.351  17.125  0.00  0.00    +0.158 C 
BRANCH  21  22
ATOM     22  C   ASN A   9      45.807  72.821  16.370  0.00  0.00    +0.241 C 
ATOM     23  O   ASN A   9      44.831  72.081  16.256  0.00  0.00    -0.273 OA
ATOM     24  N   GLY A  10      45.849  74.046  15.858  0.00  0.00    -0.296 N 
ATOM     25  H   GLY A  10      46.704  74.625  15.980  0.00  0.00    +0.150 HD
BRANCH  24  26
ATOM     26  CA  GLY A  10      44.716  74.586  15.131  0.00  0.00    +0.163 C 
BRANCH  26  27
ATOM     27  C   GLY A  10      43.534  74.915  16.027  0.00  0.00    +0.229 C 
ATOM     28  O   GLY A  10      43.670  75.062  17.253  0.00  0.00    -0.286 OA
ENDBRANCH  26  27
ENDBRANCH  24  26
ENDBRANCH  21  22
BRANCH  21  29
ATOM     29  CB  ASN A   9      46.749  71.070  17.908  0.00  0.00    +0.114 C 
BRANCH  29  30
ATOM     30  CG  ASN A   9      46.752  69.828  17.055  0.00  0.00    +0.222 C 
ATOM     31  OD1 ASN A   9      46.314  68.783  17.507  0.00  0.00    -0.275 OA
ATOM     32  ND2 ASN A   9      47.248  69.927  15.831  0.00  0.00    -0.329 N 
ATOM     33 HD21 ASN A   9      47.610  70.840  15.489  0.00  0.00    +0.145 HD
ATOM     34 HD22 ASN A   9      47.275  69.092  15.212  0.00  0.00    +0.145 HD
ENDBRANCH  29  30
ENDBRANCH  21  29
ENDBRANCH  18  21
ENDBRANCH  16  17
BRANCH  16  35
ATOM     35  CB  ILE A   8      49.367  76.131  18.904  0.00  0.00    +0.027 C 
ATOM     36  CG2 ILE A   8      48.170  76.813  18.232  0.00  0.00    +0.002 C 
BRANCH  35  37
ATOM     37  CG1 ILE A   8      49.803  76.949  20.124  0.00  0.00    +0.002 C 
ATOM     38  CD1 ILE A   8      51.131  76.807  20.615  0.00  0.00    +0.000 C 
ENDBRANCH  35  37
ENDBRANCH  16  35
ENDBRANCH  14  16
ENDBRANCH  11  12
BRANCH  11  39
ATOM     39  CB  PHE A   7      51.276  71.383  21.891  0.00  0.00    +0.055 C 
BRANCH  39  40
ATOM     40  CG  PHE A   7      51.651  70.980  20.489  0.00  0.00    -0.020 A 
ATOM     41  CD2 PHE A   7      52.955  71.155  20.035  0.00  0.00    -0.004 A 
ATOM     42  CE2 PHE A   7      53.296  70.842  18.720  0.00  0.00    -0.000 A 
ATOM     43  CZ  PHE A   7      52.316  70.341  17.841  0.00  0.00    -0.000 A 
ATOM     44  CE1 PHE A   7      51.006  70.155  18.287  0.00  0.00    -0.000 A 
ATOM     45  CD1 PHE A   7      50.681  70.476  19.606  0.00  0.00    -0.004 A 
ENDBRANCH  39  40
ENDBRANCH  11  39
ENDBRANCH   8  11
ENDBRANCH   5   7
ENDBRANCH   3   5
BRANCH   1  46
ATOM     46  CA  ASP A   5      52.176  76.283  28.032  0.00  0.00    +0.160 C 
BRANCH  46  48
ATOM     47  C   GLY A   4      52.683  78.168  26.597  0.00  0.00    +0.243 C 
ATOM     48  N   ASP A   5      51.973  77.669  27.608  0.00  0.00    -0.296 N 
ATOM     49  H   ASP A   5      51.274  78.265  28.096  0.00  0.00    +0.150 HD
ATOM     50  O   GLY A   4      53.552  77.508  26.015  0.00  0.00    -0.273 OA
BRANCH  47  51
ATOM     51  CA  GLY A   4      52.408  79.606  26.169  0.00  0.00    +0.176 C 
BRANCH  51  54
ATOM     52  C   SER A   3      53.760  81.259  24.996  0.00  0.00    +0.243 C 
ATOM     53  O   SER A   3      53.184  82.221  25.524  0.00  0.00    -0.273 OA
ATOM     54  N   GLY A   4      53.475  79.987  25.261  0.00  0.00    -0.295 N 
ATOM     55  H   GLY A   4      54.035  79.240  24.802  0.00  0.00    +0.150 HD
BRANCH  52  56
ATOM     56  CA  SER A   3      54.935  81.460  24.035  0.00  0.00    +0.178 C 
BRANCH  56  58
ATOM     57  C   VAL A   2      54.807  82.806  21.989  0.00  0.00    +0.241 C 
ATOM     58  N   SER A   3      54.884  82.750  23.322  0.00  0.00    -0.295 N 
ATOM     59  H   SER A   3      54.908  83.635  23.868  0.00  0.00    +0.150 HD
ATOM     60  O   VAL A   2      54.777  81.788  21.271  0.00  0.00    -0.273 OA
BRANCH  57  61
ATOM     61  CA  VAL A   2      54.763  84.207  21.374  0.00  0.00    +0.148 C 
BRANCH  61  64
ATOM     62  C   ILE A   1      56.672  85.058  20.142  0.00  0.00    +0.238 C 
ATOM     63  O   ILE A   1      57.015  85.759  21.101  0.00  0.00    -0.274 OA
ATOM     64  N   VAL A   2      55.576  84.299  20.170  0.00  0.00    -0.297 N 
ATOM     65  H   VAL A   2      55.299  83.766  19.321  0.00  0.00    +0.150 HD
BRANCH  62  66
ATOM     66  CA  ILE A   1      57.492  85.078  18.842  0.00  0.00    +0.145 C 
BRANCH  66  67
ATOM     67  CB  ILE A   1      58.834  84.352  19.131  0.00  0.00    +0.025 C 
ATOM     68  CG2 ILE A   1      58.571  82.843  19.437  0.00  0.00    +0.002 C 
BRANCH  67  69
ATOM     69  CG1 ILE A   1      59.763  84.434  17.923  0.00  0.00    +0.002 C 
ATOM     70  CD1 ILE A   1      61.144  83.774  18.081  0.00  0.00    +0.000 C 
ENDBRANCH  67  69
ENDBRANCH  66  67
BRANCH  66  71
ATOM     71  N   ILE A   1      57.664  86.510  18.545  0.00  0.00    -0.238 NA
ATOM     72  H   ILE A   1      58.264  87.077  19.177  0.00  0.00    +0.142 HD
ENDBRANCH  66  71
ENDBRANCH  62  66
ENDBRANCH  61  64
BRANCH  61  73
ATOM     73  CB  VAL A   2      53.262  84.618  21.119  0.00  0.00    +0.027 C 
ATOM     74  CG2 VAL A   2      53.185  86.093  20.689  0.00  0.00    +0.002 C 
ATOM     75  CG1 VAL A   2      52.615  83.697  20.088  0.00  0.00    +0.002 C 
ENDBRANCH  61  73
ENDBRANCH  57  61
ENDBRANCH  56  58
BRANCH  56  76
ATOM     76  CB  SER A   3      56.198  81.317  24.895  0.00  0.00    +0.166 C 
BRANCH  76  77
ATOM     77  OG  SER A   3      57.375  81.769  24.281  0.00  0.00    -0.380 OA
ATOM     78  H   SER A   3      57.532  81.253  23.451  0.00  0.00    +0.211 HD
ENDBRANCH  76  77
ENDBRANCH  56  76
ENDBRANCH  52  56
ENDBRANCH  51  54
ENDBRANCH  47  51
ENDBRANCH  46  48
BRANCH  46  79
ATOM     79  CB  ASP A   5      51.983  76.135  29.544  0.00  0.00    +0.143 C 
BRANCH  79  80
ATOM     80  CG  ASP A   5      53.277  76.326  30.310  0.00  0.00    +0.367 C 
ATOM     81  OD2 ASP A   5      53.199  76.530  31.542  0.00  0.00    -0.246 OA
ATOM     82  OD1 ASP A   5      54.365  76.251  29.679  0.00  0.00    -0.246 OA
ENDBRANCH  79  80
ENDBRANCH  46  79
ENDBRANCH   1  46
TORSDOF 33
REMARK  Name = ../refined-set-2016/1nc1/1nc1_pocket.pdb
REMARK  219 active torsions:
REMARK  status: ('A' for Active; 'I' for Inactive)
REMARK    1  A    between atoms: _1  and  _3
REMARK    2  A    between atoms: _3  and  _4
REMARK    3  A    between atoms: _6  and  _8
REMARK    4  A    between atoms: _8  and  _9
REMARK    5  A    between atoms: _12  and  _14
REMARK    6  A    between atoms: _14  and  _15
REMARK    7  A    between atoms: _14  and  _17
REMARK    8  A    between atoms: _17  and  _18
REMARK    9  A    between atoms: _18  and  _19
REMARK   10  A    between atoms: _21  and  _23
REMARK   11  A    between atoms: _23  and  _24
REMARK   12  A    between atoms: _23  and  _26
REMARK   13  A    between atoms: _26  and  _27
REMARK   14  A    between atoms: _27  and  _28
REMARK   15  A    between atoms: _31  and  _33
REMARK   16  A    between atoms: _33  and  _34
REMARK   17  A    between atoms: _33  and  _36
REMARK   18  A    between atoms: _36  and  _37
REMARK   19  A    between atoms: _37  and  _38
REMARK   20  A    between atoms: _41  and  _43
REMARK   21  A    between atoms: _43  and  _44
REMARK   22  A    between atoms: _43  and  _46
REMARK   23  A    between atoms: _46  and  _47
REMARK   24  A    between atoms: _49  and  _51
REMARK   25  A    between atoms: _51  and  _52
REMARK   26  A    between atoms: _54  and  _56
REMARK   27  A    between atoms: _56  and  _57
REMARK   28  A    between atoms: _56  and  _59
REMARK   29  A    between atoms: _59  and  _60
REMARK   30  A    between atoms: _63  and  _65
REMARK   31  A    between atoms: _65  and  _66
REMARK   32  A    between atoms: _68  and  _70
REMARK   33  A    between atoms: _70  and  _71
REMARK   34  A    between atoms: _70  and  _73
REMARK   35  A    between atoms: _73  and  _74
REMARK   36  A    between atoms: _74  and  _75
REMARK   37  A    between atoms: _75  and  _76
REMARK   38  A    between atoms: _76  and  _77
REMARK   39  A    between atoms: _81  and  _83
REMARK   40  A    between atoms: _83  and  _84
REMARK   41  A    between atoms: _87  and  _89
REMARK   42  A    between atoms: _89  and  _90
REMARK   43  A    between atoms: _93  and  _95
REMARK   44  A    between atoms: _95  and  _96
REMARK   45  A    between atoms: _95  and  _98
REMARK   46  A    between atoms: _98  and  _99
REMARK   47  A    between atoms: _104  and  _106
REMARK   48  A    between atoms: _106  and  _107
REMARK   49  A    between atoms: _106  and  _109
REMARK   50  A    between atoms: _109  and  _110
REMARK   51  A    between atoms: _113  and  _115
REMARK   52  A    between atoms: _115  and  _116
REMARK   53  A    between atoms: _118  and  _120
REMARK   54  A    between atoms: _120  and  _121
REMARK   55  A    between atoms: _120  and  _123
REMARK   56  A    between atoms: _123  and  _124
REMARK   57  A    between atoms: _126  and  _128
REMARK   58  A    between atoms: _128  and  _129
REMARK   59  A    between atoms: _132  and  _134
REMARK   60  A    between atoms: _134  and  _135
REMARK   61  A    between atoms: _137  and  _139
REMARK   62  A    between atoms: _139  and  _140
REMARK   63  A    between atoms: _142  and  _144
REMARK   64  A    between atoms: _144  and  _145
REMARK   65  A    between atoms: _144  and  _147
REMARK   66  A    between atoms: _147  and  _148
REMARK   67  A    between atoms: _151  and  _153
REMARK   68  A    between atoms: _153  and  _154
REMARK   69  A    between atoms: _153  and  _156
REMARK   70  A    between atoms: _156  and  _157
REMARK   71  A    between atoms: _162  and  _164
REMARK   72  A    between atoms: _164  and  _165
REMARK   73  A    between atoms: _164  and  _167
REMARK   74  A    between atoms: _167  and  _168
REMARK   75  A    between atoms: _171  and  _173
REMARK   76  A    between atoms: _173  and  _174
REMARK   77  A    between atoms: _173  and  _176
REMARK   78  A    between atoms: _179  and  _181
REMARK   79  A    between atoms: _181  and  _182
REMARK   80  A    between atoms: _181  and  _184
REMARK   81  A    between atoms: _184  and  _185
REMARK   82  A    between atoms: _187  and  _189
REMARK   83  A    between atoms: _189  and  _190
REMARK   84  A    between atoms: _192  and  _194
REMARK   85  A    between atoms: _194  and  _195
REMARK   86  A    between atoms: _194  and  _197
REMARK   87  A    between atoms: _197  and  _198
REMARK   88  A    between atoms: _201  and  _203
REMARK   89  A    between atoms: _203  and  _204
REMARK   90  A    between atoms: _207  and  _209
REMARK   91  A    between atoms: _209  and  _210
REMARK   92  A    between atoms: _209  and  _212
REMARK   93  A    between atoms: _212  and  _213
REMARK   94  A    between atoms: _219  and  _221
REMARK   95  A    between atoms: _221  and  _222
REMARK   96  A    between atoms: _221  and  _224
REMARK   97  A    between atoms: _224  and  _225
REMARK   98  A    between atoms: _228  and  _230
REMARK   99  A    between atoms: _230  and  _231
REMARK  100  A    between atoms: _230  and  _233
REMARK  101  A    between atoms: _233  and  _234
REMARK  102  A    between atoms: _239  and  _241
REMARK  103  A    between atoms: _241  and  _242
REMARK  104  A    between atoms: _244  and  _246
REMARK  105  A    between atoms: _246  and  _247
REMARK  106  A    between atoms: _246  and  _249
REMARK  107  A    between atoms: _249  and  _250
REMARK  108  A    between atoms: _253  and  _255
REMARK  109  A    between atoms: _255  and  _256
REMARK  110  A    between atoms: _255  and  _258
REMARK  111  A    between atoms: _258  and  _259
REMARK  112  A    between atoms: _262  and  _264
REMARK  113  A    between atoms: _264  and  _265
REMARK  114  A    between atoms: _268  and  _270
REMARK  115  A    between atoms: _270  and  _271
REMARK  116  A    between atoms: _270  and  _273
REMARK  117  A    between atoms: _276  and  _278
REMARK  118  A    between atoms: _278  and  _279
REMARK  119  A    between atoms: _278  and  _281
REMARK  120  A    between atoms: _281  and  _282
REMARK  121  A    between atoms: _282  and  _283
REMARK  122  A    between atoms: _286  and  _288
REMARK  123  A    between atoms: _288  and  _289
REMARK  124  A    between atoms: _288  and  _291
REMARK  125  A    between atoms: _291  and  _292
REMARK  126  A    between atoms: _292  and  _293
REMARK  127  A    between atoms: _295  and  _297
REMARK  128  A    between atoms: _297  and  _298
REMARK  129  A    between atoms: _297  and  _300
REMARK  130  A    between atoms: _300  and  _301
REMARK  131  A    between atoms: _301  and  _302
REMARK  132  A    between atoms: _305  and  _307
REMARK  133  A    between atoms: _307  and  _308
REMARK  134  A    between atoms: _311  and  _313
REMARK  135  A    between atoms: _313  and  _314
REMARK  136  A    between atoms: _313  and  _316
REMARK  137  A    between atoms: _316  and  _317
REMARK  138  A    between atoms: _320  and  _322
REMARK  139  A    between atoms: _322  and  _323
REMARK  140  A    between atoms: _322  and  _325
REMARK  141  A    between atoms: _325  and  _326
REMARK  142  A    between atoms: _329  and  _331
REMARK  143  A    between atoms: _331  and  _332
REMARK  144  A    between atoms: _331  and  _334
REMARK  145  A    between atoms: _334  and  _335
REMARK  146  A    between atoms: _335  and  _336
REMARK  147  A    between atoms: _336  and  _337
REMARK  148  A    between atoms: _346  and  _348
REMARK  149  A    between atoms: _348  and  _349
REMARK  150  A    between atoms: _352  and  _354
REMARK  151  A    between atoms: _354  and  _355
REMARK  152  A    between atoms: _354  and  _357
REMARK  153  A    between atoms: _357  and  _358
REMARK  154  A    between atoms: _361  and  _363
REMARK  155  A    between atoms: _363  and  _364
REMARK  156  A    between atoms: _363  and  _366
REMARK  157  A    between atoms: _366  and  _367
REMARK  158  A    between atoms: _369  and  _371
REMARK  159  A    between atoms: _371  and  _372
REMARK  160  A    between atoms: _371  and  _374
REMARK  161  A    between atoms: _374  and  _375
REMARK  162  A    between atoms: _378  and  _380
REMARK  163  A    between atoms: _380  and  _381
REMARK  164  A    between atoms: _380  and  _383
REMARK  165  A    between atoms: _386  and  _388
REMARK  166  A    between atoms: _388  and  _389
REMARK  167  A    between atoms: _392  and  _394
REMARK  168  A    between atoms: _394  and  _395
REMARK  169  A    between atoms: _394  and  _397
REMARK  170  A    between atoms: _397  and  _398
REMARK  171  A    between atoms: _401  and  _403
REMARK  172  A    between atoms: _403  and  _404
REMARK  173  A    between atoms: _403  and  _406
REMARK  174  A    between atoms: _406  and  _407
REMARK  175  A    between atoms: _409  and  _411
REMARK  176  A    between atoms: _411  and  _412
REMARK  177  A    between atoms: _411  and  _414
REMARK  178  A    between atoms: _414  and  _415
REMARK  179  A    between atoms: _420  and  _422
REMARK  180  A    between atoms: _422  and  _423
REMARK  181  A    between atoms: _422  and  _425
REMARK  182  A    between atoms: _425  and  _426
REMARK  183  A    between atoms: _428  and  _430
REMARK  184  A    between atoms: _430  and  _431
REMARK  185  A    between atoms: _430  and  _433
REMARK  186  A    between atoms: _433  and  _434
REMARK  187  A    between atoms: _440  and  _442
REMARK  188  A    between atoms: _442  and  _443
REMARK  189  A    between atoms: _442  and  _445
REMARK  190  A    between atoms: _445  and  _446
REMARK  191  A    between atoms: _449  and  _451
REMARK  192  A    between atoms: _451  and  _452
REMARK  193  A    between atoms: _451  and  _454
REMARK  194  A    between atoms: _454  and  _455
REMARK  195  A    between atoms: _458  and  _460
REMARK  196  A    between atoms: _460  and  _461
REMARK  197  A    between atoms: _464  and  _466
REMARK  198  A    between atoms: _466  and  _467
REMARK  199  A    between atoms: _466  and  _469
REMARK  200  A    between atoms: _469  and  _470
REMARK  201  A    between atoms: _473  and  _475
REMARK  202  A    between atoms: _475  and  _476
REMARK  203  A    between atoms: _475  and  _478
REMARK  204  A    between atoms: _481  and  _483
REMARK  205  A    between atoms: _483  and  _484
REMARK  206  A    between atoms: _487  and  _489
REMARK  207  A    between atoms: _489  and  _490
REMARK  208  A    between atoms: _489  and  _492
REMARK  209  A    between atoms: _492  and  _493
REMARK  210  A    between atoms: _499  and  _501
REMARK  211  A    between atoms: _501  and  _502
REMARK  212  A    between atoms: _501  and  _504
REMARK  213  A    between atoms: _504  and  _505
REMARK  214  A    between atoms: _510  and  _511
REMARK  215  A    between atoms: _513  and  _515
REMARK  216  A    between atoms: _515  and  _516
REMARK  217  A    between atoms: _515  and  _518
REMARK  218  A    between atoms: _518  and  _519
REMARK  219  A    between atoms: _523  and  _524
REMARK                            x       y       z     vdW  Elec       q    Type
REMARK                         _______ _______ _______ _____ _____    ______ ____
ROOT
ATOM      1  CA  LEU A   1      45.278  78.985  17.080  0.00  0.00    +0.133 C 
ENDROOT
BRANCH   1   2
ATOM      2  N   LEU A   1      44.676  78.207  18.155  0.00  0.00    -0.239 NA
ATOM      3  H   LEU A   1      44.264  77.276  17.942  0.00  0.00    +0.142 HD
ENDBRANCH   1   2
BRANCH   1   4
ATOM      4  C   LEU A   1      44.575  80.307  16.818  0.00  0.00    +0.224 C 
ATOM      5  O   LEU A   1      45.222  81.356  16.712  0.00  0.00    -0.287 OA
ENDBRANCH   1   4
BRANCH   1   6
ATOM      6  CB  LEU A   1      45.288  78.171  15.781  0.00  0.00    +0.025 C 
BRANCH   6   7
ATOM      7  CG  LEU A   1      46.005  78.800  14.591  0.00  0.00    +0.002 C 
ATOM      8  CD2 LEU A   1      47.467  79.141  14.964  0.00  0.00    +0.000 C 
ATOM      9  CD1 LEU A   1      45.959  77.825  13.418  0.00  0.00    +0.000 C 
ENDBRANCH   6   7
ENDBRANCH   1   6
TORSDOF 4
REMARK  Name = ../refined-set-2016/1nc1/1nc1_pocket.pdb
REMARK  219 active torsions:
REMARK  status: ('A' for Active; 'I' for Inactive)
REMARK    1  A    between atoms: _1  and  _3
REMARK    2  A    between atoms: _3  and  _4
REMARK    3  A    between atoms: _6  and  _8
REMARK    4  A    between atoms: _8  and  _9
REMARK    5  A    between atoms: _12  and  _14
REMARK    6  A    between atoms: _14  and  _15
REMARK    7  A    between atoms: _14  and  _17
REMARK    8  A    between atoms: _17  and  _18
REMARK    9  A    between atoms: _18  and  _19
REMARK   10  A    between atoms: _21  and  _23
REMARK   11  A    between atoms: _23  and  _24
REMARK   12  A    between atoms: _23  and  _26
REMARK   13  A    between atoms: _26  and  _27
REMARK   14  A    between atoms: _27  and  _28
REMARK   15  A    between atoms: _31  and  _33
REMARK   16  A    between atoms: _33  and  _34
REMARK   17  A    between atoms: _33  and  _36
REMARK   18  A    between atoms: _36  and  _37
REMARK   19  A    between atoms: _37  and  _38
REMARK   20  A    between atoms: _41  and  _43
REMARK   21  A    between atoms: _43  and  _44
REMARK   22  A    between atoms: _43  and  _46
REMARK   23  A    between atoms: _46  and  _47
REMARK   24  A    between atoms: _49  and  _51
REMARK   25  A    between atoms: _51  and  _52
REMARK   26  A    between atoms: _54  and  _56
REMARK   27  A    between atoms: _56  and  _57
REMARK   28  A    between atoms: _56  and  _59
REMARK   29  A    between atoms: _59  and  _60
REMARK   30  A    between atoms: _63  and  _65
REMARK   31  A    between atoms: _65  and  _66
REMARK   32  A    between atoms: _68  and  _70
REMARK   33  A    between atoms: _70  and  _71
REMARK   34  A    between atoms: _70  and  _73
REMARK   35  A    between atoms: _73  and  _74
REMARK   36  A    between atoms: _74  and  _75
REMARK   37  A    between atoms: _75  and  _76
REMARK   38  A    between atoms: _76  and  _77
REMARK   39  A    between atoms: _81  and  _83
REMARK   40  A    between atoms: _83  and  _84
REMARK   41  A    between atoms: _87  and  _89
REMARK   42  A    between atoms: _89  and  _90
REMARK   43  A    between atoms: _93  and  _95
REMARK   44  A    between atoms: _95  and  _96
REMARK   45  A    between atoms: _95  and  _98
REMARK   46  A    between atoms: _98  and  _99
REMARK   47  A    between atoms: _104  and  _106
REMARK   48  A    between atoms: _106  and  _107
REMARK   49  A    between atoms: _106  and  _109
REMARK   50  A    between atoms: _109  and  _110
REMARK   51  A    between atoms: _113  and  _115
REMARK   52  A    between atoms: _115  and  _116
REMARK   53  A    between atoms: _118  and  _120
REMARK   54  A    between atoms: _120  and  _121
REMARK   55  A    between atoms: _120  and  _123
REMARK   56  A    between atoms: _123  and  _124
REMARK   57  A    between atoms: _126  and  _128
REMARK   58  A    between atoms: _128  and  _129
REMARK   59  A    between atoms: _132  and  _134
REMARK   60  A    between atoms: _134  and  _135
REMARK   61  A    between atoms: _137  and  _139
REMARK   62  A    between atoms: _139  and  _140
REMARK   63  A    between atoms: _142  and  _144
REMARK   64  A    between atoms: _144  and  _145
REMARK   65  A    between atoms: _144  and  _147
REMARK   66  A    between atoms: _147  and  _148
REMARK   67  A    between atoms: _151  and  _153
REMARK   68  A    between atoms: _153  and  _154
REMARK   69  A    between atoms: _153  and  _156
REMARK   70  A    between atoms: _156  and  _157
REMARK   71  A    between atoms: _162  and  _164
REMARK   72  A    between atoms: _164  and  _165
REMARK   73  A    between atoms: _164  and  _167
REMARK   74  A    between atoms: _167  and  _168
REMARK   75  A    between atoms: _171  and  _173
REMARK   76  A    between atoms: _173  and  _174
REMARK   77  A    between atoms: _173  and  _176
REMARK   78  A    between atoms: _179  and  _181
REMARK   79  A    between atoms: _181  and  _182
REMARK   80  A    between atoms: _181  and  _184
REMARK   81  A    between atoms: _184  and  _185
REMARK   82  A    between atoms: _187  and  _189
REMARK   83  A    between atoms: _189  and  _190
REMARK   84  A    between atoms: _192  and  _194
REMARK   85  A    between atoms: _194  and  _195
REMARK   86  A    between atoms: _194  and  _197
REMARK   87  A    between atoms: _197  and  _198
REMARK   88  A    between atoms: _201  and  _203
REMARK   89  A    between atoms: _203  and  _204
REMARK   90  A    between atoms: _207  and  _209
REMARK   91  A    between atoms: _209  and  _210
REMARK   92  A    between atoms: _209  and  _212
REMARK   93  A    between atoms: _212  and  _213
REMARK   94  A    between atoms: _219  and  _221
REMARK   95  A    between atoms: _221  and  _222
REMARK   96  A    between atoms: _221  and  _224
REMARK   97  A    between atoms: _224  and  _225
REMARK   98  A    between atoms: _228  and  _230
REMARK   99  A    between atoms: _230  and  _231
REMARK  100  A    between atoms: _230  and  _233
REMARK  101  A    between atoms: _233  and  _234
REMARK  102  A    between atoms: _239  and  _241
REMARK  103  A    between atoms: _241  and  _242
REMARK  104  A    between atoms: _244  and  _246
REMARK  105  A    between atoms: _246  and  _247
REMARK  106  A    between atoms: _246  and  _249
REMARK  107  A    between atoms: _249  and  _250
REMARK  108  A    between atoms: _253  and  _255
REMARK  109  A    between atoms: _255  and  _256
REMARK  110  A    between atoms: _255  and  _258
REMARK  111  A    between atoms: _258  and  _259
REMARK  112  A    between atoms: _262  and  _264
REMARK  113  A    between atoms: _264  and  _265
REMARK  114  A    between atoms: _268  and  _270
REMARK  115  A    between atoms: _270  and  _271
REMARK  116  A    between atoms: _270  and  _273
REMARK  117  A    between atoms: _276  and  _278
REMARK  118  A    between atoms: _278  and  _279
REMARK  119  A    between atoms: _278  and  _281
REMARK  120  A    between atoms: _281  and  _282
REMARK  121  A    between atoms: _282  and  _283
REMARK  122  A    between atoms: _286  and  _288
REMARK  123  A    between atoms: _288  and  _289
REMARK  124  A    between atoms: _288  and  _291
REMARK  125  A    between atoms: _291  and  _292
REMARK  126  A    between atoms: _292  and  _293
REMARK  127  A    between atoms: _295  and  _297
REMARK  128  A    between atoms: _297  and  _298
REMARK  129  A    between atoms: _297  and  _300
REMARK  130  A    between atoms: _300  and  _301
REMARK  131  A    between atoms: _301  and  _302
REMARK  132  A    between atoms: _305  and  _307
REMARK  133  A    between atoms: _307  and  _308
REMARK  134  A    between atoms: _311  and  _313
REMARK  135  A    between atoms: _313  and  _314
REMARK  136  A    between atoms: _313  and  _316
REMARK  137  A    between atoms: _316  and  _317
REMARK  138  A    between atoms: _320  and  _322
REMARK  139  A    between atoms: _322  and  _323
REMARK  140  A    between atoms: _322  and  _325
REMARK  141  A    between atoms: _325  and  _326
REMARK  142  A    between atoms: _329  and  _331
REMARK  143  A    between atoms: _331  and  _332
REMARK  144  A    between atoms: _331  and  _334
REMARK  145  A    between atoms: _334  and  _335
REMARK  146  A    between atoms: _335  and  _336
REMARK  147  A    between atoms: _336  and  _337
REMARK  148  A    between atoms: _346  and  _348
REMARK  149  A    between atoms: _348  and  _349
REMARK  150  A    between atoms: _352  and  _354
REMARK  151  A    between atoms: _354  and  _355
REMARK  152  A    between atoms: _354  and  _357
REMARK  153  A    between atoms: _357  and  _358
REMARK  154  A    between atoms: _361  and  _363
REMARK  155  A    between atoms: _363  and  _364
REMARK  156  A    between atoms: _363  and  _366
REMARK  157  A    between atoms: _366  and  _367
REMARK  158  A    between atoms: _369  and  _371
REMARK  159  A    between atoms: _371  and  _372
REMARK  160  A    between atoms: _371  and  _374
REMARK  161  A    between atoms: _374  and  _375
REMARK  162  A    between atoms: _378  and  _380
REMARK  163  A    between atoms: _380  and  _381
REMARK  164  A    between atoms: _380  and  _383
REMARK  165  A    between atoms: _386  and  _388
REMARK  166  A    between atoms: _388  and  _389
REMARK  167  A    between atoms: _392  and  _394
REMARK  168  A    between atoms: _394  and  _395
REMARK  169  A    between atoms: _394  and  _397
REMARK  170  A    between atoms: _397  and  _398
REMARK  171  A    between atoms: _401  and  _403
REMARK  172  A    between atoms: _403  and  _404
REMARK  173  A    between atoms: _403  and  _406
REMARK  174  A    between atoms: _406  and  _407
REMARK  175  A    between atoms: _409  and  _411
REMARK  176  A    between atoms: _411  and  _412
REMARK  177  A    between atoms: _411  and  _414
REMARK  178  A    between atoms: _414  and  _415
REMARK  179  A    between atoms: _420  and  _422
REMARK  180  A    between atoms: _422  and  _423
REMARK  181  A    between atoms: _422  and  _425
REMARK  182  A    between atoms: _425  and  _426
REMARK  183  A    between atoms: _428  and  _430
REMARK  184  A    between atoms: _430  and  _431
REMARK  185  A    between atoms: _430  and  _433
REMARK  186  A    between atoms: _433  and  _434
REMARK  187  A    between atoms: _440  and  _442
REMARK  188  A    between atoms: _442  and  _443
REMARK  189  A    between atoms: _442  and  _445
REMARK  190  A    between atoms: _445  and  _446
REMARK  191  A    between atoms: _449  and  _451
REMARK  192  A    between atoms: _451  and  _452
REMARK  193  A    between atoms: _451  and  _454
REMARK  194  A    between atoms: _454  and  _455
REMARK  195  A    between atoms: _458  and  _460
REMARK  196  A    between atoms: _460  and  _461
REMARK  197  A    between atoms: _464  and  _466
REMARK  198  A    between atoms: _466  and  _467
REMARK  199  A    between atoms: _466  and  _469
REMARK  200  A    between atoms: _469  and  _470
REMARK  201  A    between atoms: _473  and  _475
REMARK  202  A    between atoms: _475  and  _476
REMARK  203  A    between atoms: _475  and  _478
REMARK  204  A    between atoms: _481  and  _483
REMARK  205  A    between atoms: _483  and  _484
REMARK  206  A    between atoms: _487  and  _489
REMARK  207  A    between atoms: _489  and  _490
REMARK  208  A    between atoms: _489  and  _492
REMARK  209  A    between atoms: _492  and  _493
REMARK  210  A    between atoms: _499  and  _501
REMARK  211  A    between atoms: _501  and  _502
REMARK  212  A    between atoms: _501  and  _504
REMARK  213  A    between atoms: _504  and  _505
REMARK  214  A    between atoms: _510  and  _511
REMARK  215  A    between atoms: _513  and  _515
REMARK  216  A    between atoms: _515  and  _516
REMARK  217  A    between atoms: _515  and  _518
REMARK  218  A    between atoms: _518  and  _519
REMARK  219  A    between atoms: _523  and  _524
REMARK                            x       y       z     vdW  Elec       q    Type
REMARK                         _______ _______ _______ _____ _____    ______ ____
ROOT
ATOM      1  CA  ILE A   1      46.513  83.669  19.140  0.00  0.00    +0.133 C 
ENDROOT
BRANCH   1   2
ATOM      2  N   ILE A   1      45.181  83.085  19.305  0.00  0.00    -0.239 NA
ATOM      3  H   ILE A   1      45.050  82.061  19.181  0.00  0.00    +0.142 HD
ENDBRANCH   1   2
BRANCH   1   4
ATOM      4  CB  ILE A   1      47.573  82.577  18.903  0.00  0.00    +0.023 C 
ATOM      5  CG2 ILE A   1      48.898  83.205  18.481  0.00  0.00    +0.002 C 
BRANCH   4   6
ATOM      6  CG1 ILE A   1      47.740  81.750  20.181  0.00  0.00    +0.002 C 
ATOM      7  CD1 ILE A   1      48.491  80.433  20.001  0.00  0.00    +0.000 C 
ENDBRANCH   4   6
ENDBRANCH   1   4
BRANCH   1   8
ATOM      8  C   ILE A   1      46.553  84.673  17.986  0.00  0.00    +0.224 C 
ATOM      9  O   ILE A   1      47.025  85.805  18.151  0.00  0.00    -0.287 OA
ENDBRANCH   1   8
TORSDOF 4
REMARK  Name = ../refined-set-2016/1nc1/1nc1_pocket.pdb
REMARK  219 active torsions:
REMARK  status: ('A' for Active; 'I' for Inactive)
REMARK    1  A    between atoms: _1  and  _3
REMARK    2  A    between atoms: _3  and  _4
REMARK    3  A    between atoms: _6  and  _8
REMARK    4  A    between atoms: _8  and  _9
REMARK    5  A    between atoms: _12  and  _14
REMARK    6  A    between atoms: _14  and  _15
REMARK    7  A    between atoms: _14  and  _17
REMARK    8  A    between atoms: _17  and  _18
REMARK    9  A    between atoms: _18  and  _19
REMARK   10  A    between atoms: _21  and  _23
REMARK   11  A    between atoms: _23  and  _24
REMARK   12  A    between atoms: _23  and  _26
REMARK   13  A    between atoms: _26  and  _27
REMARK   14  A    between atoms: _27  and  _28
REMARK   15  A    between atoms: _31  and  _33
REMARK   16  A    between atoms: _33  and  _34
REMARK   17  A    between atoms: _33  and  _36
REMARK   18  A    between atoms: _36  and  _37
REMARK   19  A    between atoms: _37  and  _38
REMARK   20  A    between atoms: _41  and  _43
REMARK   21  A    between atoms: _43  and  _44
REMARK   22  A    between atoms: _43  and  _46
REMARK   23  A    between atoms: _46  and  _47
REMARK   24  A    between atoms: _49  and  _51
REMARK   25  A    between atoms: _51  and  _52
REMARK   26  A    between atoms: _54  and  _56
REMARK   27  A    between atoms: _56  and  _57
REMARK   28  A    between atoms: _56  and  _59
REMARK   29  A    between atoms: _59  and  _60
REMARK   30  A    between atoms: _63  and  _65
REMARK   31  A    between atoms: _65  and  _66
REMARK   32  A    between atoms: _68  and  _70
REMARK   33  A    between atoms: _70  and  _71
REMARK   34  A    between atoms: _70  and  _73
REMARK   35  A    between atoms: _73  and  _74
REMARK   36  A    between atoms: _74  and  _75
REMARK   37  A    between atoms: _75  and  _76
REMARK   38  A    between atoms: _76  and  _77
REMARK   39  A    between atoms: _81  and  _83
REMARK   40  A    between atoms: _83  and  _84
REMARK   41  A    between atoms: _87  and  _89
REMARK   42  A    between atoms: _89  and  _90
REMARK   43  A    between atoms: _93  and  _95
REMARK   44  A    between atoms: _95  and  _96
REMARK   45  A    between atoms: _95  and  _98
REMARK   46  A    between atoms: _98  and  _99
REMARK   47  A    between atoms: _104  and  _106
REMARK   48  A    between atoms: _106  and  _107
REMARK   49  A    between atoms: _106  and  _109
REMARK   50  A    between atoms: _109  and  _110
REMARK   51  A    between atoms: _113  and  _115
REMARK   52  A    between atoms: _115  and  _116
REMARK   53  A    between atoms: _118  and  _120
REMARK   54  A    between atoms: _120  and  _121
REMARK   55  A    between atoms: _120  and  _123
REMARK   56  A    between atoms: _123  and  _124
REMARK   57  A    between atoms: _126  and  _128
REMARK   58  A    between atoms: _128  and  _129
REMARK   59  A    between atoms: _132  and  _134
REMARK   60  A    between atoms: _134  and  _135
REMARK   61  A    between atoms: _137  and  _139
REMARK   62  A    between atoms: _139  and  _140
REMARK   63  A    between atoms: _142  and  _144
REMARK   64  A    between atoms: _144  and  _145
REMARK   65  A    between atoms: _144  and  _147
REMARK   66  A    between atoms: _147  and  _148
REMARK   67  A    between atoms: _151  and  _153
REMARK   68  A    between atoms: _153  and  _154
REMARK   69  A    between atoms: _153  and  _156
REMARK   70  A    between atoms: _156  and  _157
REMARK   71  A    between atoms: _162  and  _164
REMARK   72  A    between atoms: _164  and  _165
REMARK   73  A    between atoms: _164  and  _167
REMARK   74  A    between atoms: _167  and  _168
REMARK   75  A    between atoms: _171  and  _173
REMARK   76  A    between atoms: _173  and  _174
REMARK   77  A    between atoms: _173  and  _176
REMARK   78  A    between atoms: _179  and  _181
REMARK   79  A    between atoms: _181  and  _182
REMARK   80  A    between atoms: _181  and  _184
REMARK   81  A    between atoms: _184  and  _185
REMARK   82  A    between atoms: _187  and  _189
REMARK   83  A    between atoms: _189  and  _190
REMARK   84  A    between atoms: _192  and  _194
REMARK   85  A    between atoms: _194  and  _195
REMARK   86  A    between atoms: _194  and  _197
REMARK   87  A    between atoms: _197  and  _198
REMARK   88  A    between atoms: _201  and  _203
REMARK   89  A    between atoms: _203  and  _204
REMARK   90  A    between atoms: _207  and  _209
REMARK   91  A    between atoms: _209  and  _210
REMARK   92  A    between atoms: _209  and  _212
REMARK   93  A    between atoms: _212  and  _213
REMARK   94  A    between atoms: _219  and  _221
REMARK   95  A    between atoms: _221  and  _222
REMARK   96  A    between atoms: _221  and  _224
REMARK   97  A    between atoms: _224  and  _225
REMARK   98  A    between atoms: _228  and  _230
REMARK   99  A    between atoms: _230  and  _231
REMARK  100  A    between atoms: _230  and  _233
REMARK  101  A    between atoms: _233  and  _234
REMARK  102  A    between atoms: _239  and  _241
REMARK  103  A    between atoms: _241  and  _242
REMARK  104  A    between atoms: _244  and  _246
REMARK  105  A    between atoms: _246  and  _247
REMARK  106  A    between atoms: _246  and  _249
REMARK  107  A    between atoms: _249  and  _250
REMARK  108  A    between atoms: _253  and  _255
REMARK  109  A    between atoms: _255  and  _256
REMARK  110  A    between atoms: _255  and  _258
REMARK  111  A    between atoms: _258  and  _259
REMARK  112  A    between atoms: _262  and  _264
REMARK  113  A    between atoms: _264  and  _265
REMARK  114  A    between atoms: _268  and  _270
REMARK  115  A    between atoms: _270  and  _271
REMARK  116  A    between atoms: _270  and  _273
REMARK  117  A    between atoms: _276  and  _278
REMARK  118  A    between atoms: _278  and  _279
REMARK  119  A    between atoms: _278  and  _281
REMARK  120  A    between atoms: _281  and  _282
REMARK  121  A    between atoms: _282  and  _283
REMARK  122  A    between atoms: _286  and  _288
REMARK  123  A    between atoms: _288  and  _289
REMARK  124  A    between atoms: _288  and  _291
REMARK  125  A    between atoms: _291  and  _292
REMARK  126  A    between atoms: _292  and  _293
REMARK  127  A    between atoms: _295  and  _297
REMARK  128  A    between atoms: _297  and  _298
REMARK  129  A    between atoms: _297  and  _300
REMARK  130  A    between atoms: _300  and  _301
REMARK  131  A    between atoms: _301  and  _302
REMARK  132  A    between atoms: _305  and  _307
REMARK  133  A    between atoms: _307  and  _308
REMARK  134  A    between atoms: _311  and  _313
REMARK  135  A    between atoms: _313  and  _314
REMARK  136  A    between atoms: _313  and  _316
REMARK  137  A    between atoms: _316  and  _317
REMARK  138  A    between atoms: _320  and  _322
REMARK  139  A    between atoms: _322  and  _323
REMARK  140  A    between atoms: _322  and  _325
REMARK  141  A    between atoms: _325  and  _326
REMARK  142  A    between atoms: _329  and  _331
REMARK  143  A    between atoms: _331  and  _332
REMARK  144  A    between atoms: _331  and  _334
REMARK  145  A    between atoms: _334  and  _335
REMARK  146  A    between atoms: _335  and  _336
REMARK  147  A    between atoms: _336  and  _337
REMARK  148  A    between atoms: _346  and  _348
REMARK  149  A    between atoms: _348  and  _349
REMARK  150  A    between atoms: _352  and  _354
REMARK  151  A    between atoms: _354  and  _355
REMARK  152  A    between atoms: _354  and  _357
REMARK  153  A    between atoms: _357  and  _358
REMARK  154  A    between atoms: _361  and  _363
REMARK  155  A    between atoms: _363  and  _364
REMARK  156  A    between atoms: _363  and  _366
REMARK  157  A    between atoms: _366  and  _367
REMARK  158  A    between atoms: _369  and  _371
REMARK  159  A    between atoms: _371  and  _372
REMARK  160  A    between atoms: _371  and  _374
REMARK  161  A    between atoms: _374  and  _375
REMARK  162  A    between atoms: _378  and  _380
REMARK  163  A    between atoms: _380  and  _381
REMARK  164  A    between atoms: _380  and  _383
REMARK  165  A    between atoms: _386  and  _388
REMARK  166  A    between atoms: _388  and  _389
REMARK  167  A    between atoms: _392  and  _394
REMARK  168  A    between atoms: _394  and  _395
REMARK  169  A    between atoms: _394  and  _397
REMARK  170  A    between atoms: _397  and  _398
REMARK  171  A    between atoms: _401  and  _403
REMARK  172  A    between atoms: _403  and  _404
REMARK  173  A    between atoms: _403  and  _406
REMARK  174  A    between atoms: _406  and  _407
REMARK  175  A    between atoms: _409  and  _411
REMARK  176  A    between atoms: _411  and  _412
REMARK  177  A    between atoms: _411  and  _414
REMARK  178  A    between atoms: _414  and  _415
REMARK  179  A    between atoms: _420  and  _422
REMARK  180  A    between atoms: _422  and  _423
REMARK  181  A    between atoms: _422  and  _425
REMARK  182  A    between atoms: _425  and  _426
REMARK  183  A    between atoms: _428  and  _430
REMARK  184  A    between atoms: _430  and  _431
REMARK  185  A    between atoms: _430  and  _433
REMARK  186  A    between atoms: _433  and  _434
REMARK  187  A    between atoms: _440  and  _442
REMARK  188  A    between atoms: _442  and  _443
REMARK  189  A    between atoms: _442  and  _445
REMARK  190  A    between atoms: _445  and  _446
REMARK  191  A    between atoms: _449  and  _451
REMARK  192  A    between atoms: _451  and  _452
REMARK  193  A    between atoms: _451  and  _454
REMARK  194  A    between atoms: _454  and  _455
REMARK  195  A    between atoms: _458  and  _460
REMARK  196  A    between atoms: _460  and  _461
REMARK  197  A    between atoms: _464  and  _466
REMARK  198  A    between atoms: _466  and  _467
REMARK  199  A    between atoms: _466  and  _469
REMARK  200  A    between atoms: _469  and  _470
REMARK  201  A    between atoms: _473  and  _475
REMARK  202  A    between atoms: _475  and  _476
REMARK  203  A    between atoms: _475  and  _478
REMARK  204  A    between atoms: _481  and  _483
REMARK  205  A    between atoms: _483  and  _484
REMARK  206  A    between atoms: _487  and  _489
REMARK  207  A    between atoms: _489  and  _490
REMARK  208  A    between atoms: _489  and  _492
REMARK  209  A    between atoms: _492  and  _493
REMARK  210  A    between atoms: _499  and  _501
REMARK  211  A    between atoms: _501  and  _502
REMARK  212  A    between atoms: _501  and  _504
REMARK  213  A    between atoms: _504  and  _505
REMARK  214  A    between atoms: _510  and  _511
REMARK  215  A    between atoms: _513  and  _515
REMARK  216  A    between atoms: _515  and  _516
REMARK  217  A    between atoms: _515  and  _518
REMARK  218  A    between atoms: _518  and  _519
REMARK  219  A    between atoms: _523  and  _524
REMARK                            x       y       z     vdW  Elec       q    Type
REMARK                         _______ _______ _______ _____ _____    ______ ____
ROOT
ATOM      1  CA  MET A   4      56.526  77.096  24.688  0.00  0.00    +0.149 C 
ENDROOT
BRANCH   1   3
ATOM      2  C   GLU A   3      55.942  77.837  22.451  0.00  0.00    +0.241 C 
ATOM      3  N   MET A   4      56.766  77.171  23.250  0.00  0.00    -0.297 N 
ATOM      4  H   MET A   4      57.597  76.694  22.845  0.00  0.00    +0.150 HD
ATOM      5  O   GLU A   3      55.002  78.494  22.878  0.00  0.00    -0.273 OA
BRANCH   2   6
ATOM      6  CA  GLU A   3      56.180  77.771  20.942  0.00  0.00    +0.149 C 
BRANCH   6   8
ATOM      7  C   VAL A   2      55.122  78.882  19.087  0.00  0.00    +0.241 C 
ATOM      8  N   GLU A   3      55.555  78.939  20.335  0.00  0.00    -0.297 N 
ATOM      9  H   GLU A   3      55.450  79.817  20.883  0.00  0.00    +0.150 HD
ATOM     10  O   VAL A   2      55.322  77.901  18.366  0.00  0.00    -0.273 OA
BRANCH   7  11
ATOM     11  CA  VAL A   2      54.419  80.118  18.553  0.00  0.00    +0.148 C 
BRANCH  11  14
ATOM     12  C   ALA A   1      55.138  81.642  16.804  0.00  0.00    +0.238 C 
ATOM     13  O   ALA A   1      55.039  82.638  17.557  0.00  0.00    -0.274 OA
ATOM     14  N   VAL A   2      54.869  80.399  17.194  0.00  0.00    -0.297 N 
ATOM     15  H   VAL A   2      54.981  79.615  16.520  0.00  0.00    +0.150 HD
BRANCH  12  16
ATOM     16  CA  ALA A   1      55.596  81.794  15.355  0.00  0.00    +0.145 C 
ATOM     17  CB  ALA A   1      57.065  81.380  15.230  0.00  0.00    +0.028 C 
BRANCH  16  18
ATOM     18  N   ALA A   1      55.432  83.172  14.908  0.00  0.00    -0.238 NA
ATOM     19  H   ALA A   1      55.271  83.919  15.613  0.00  0.00    +0.142 HD
ENDBRANCH  16  18
ENDBRANCH  12  16
ENDBRANCH  11  14
BRANCH  11  20
ATOM     20  CB  VAL A   2      52.848  79.886  18.607  0.00  0.00    +0.027 C 
ATOM     21  CG2 VAL A   2      52.404  79.585  20.045  0.00  0.00    +0.002 C 
ATOM     22  CG1 VAL A   2      52.424  78.723  17.642  0.00  0.00    +0.002 C 
ENDBRANCH  11  20
ENDBRANCH   7  11
ENDBRANCH   6   8
BRANCH   6  23
ATOM     23  CB  GLU A   3      57.662  77.657  20.545  0.00  0.00    +0.041 C 
BRANCH  23  24
ATOM     24  CG  GLU A   3      58.412  78.999  20.515  0.00  0.00    +0.116 C 
BRANCH  24  25
ATOM     25  CD  GLU A   3      58.485  79.598  21.879  0.00  0.00    +0.365 C 
ATOM     26  OE2 GLU A   3      59.322  79.099  22.655  0.00  0.00    -0.246 OA
ATOM     27  OE1 GLU A   3      57.699  80.546  22.170  0.00  0.00    -0.246 OA
ENDBRANCH  24  25
ENDBRANCH  23  24
ENDBRANCH   6  23
ENDBRANCH   2   6
ENDBRANCH   1   3
BRANCH   1  28
ATOM     28  C   MET A   4      57.626  77.508  25.675  0.00  0.00    +0.241 C 
ATOM     29  O   MET A   4      57.442  77.333  26.885  0.00  0.00    -0.273 OA
ATOM     30  N   GLU A   5      58.750  78.046  25.204  0.00  0.00    -0.297 N 
ATOM     31  H   GLU A   5      58.876  78.194  24.182  0.00  0.00    +0.150 HD
BRANCH  30  32
ATOM     32  CA  GLU A   5      59.817  78.430  26.155  0.00  0.00    +0.149 C 
BRANCH  32  33
ATOM     33  C   GLU A   5      60.436  79.822  25.959  0.00  0.00    +0.241 C 
ATOM     34  O   GLU A   5      60.885  80.444  26.923  0.00  0.00    -0.273 OA
ATOM     35  N   ALA A   6      60.454  80.300  24.715  0.00  0.00    -0.297 N 
ATOM     36  H   ALA A   6      60.002  79.748  23.958  0.00  0.00    +0.150 HD
BRANCH  35  37
ATOM     37  CA  ALA A   6      61.087  81.572  24.379  0.00  0.00    +0.149 C 
ATOM     38  CB  ALA A   6      60.740  81.963  22.920  0.00  0.00    +0.031 C 
BRANCH  37  39
ATOM     39  C   ALA A   6      60.853  82.761  25.317  0.00  0.00    +0.241 C 
ATOM     40  O   ALA A   6      61.809  83.355  25.824  0.00  0.00    -0.273 OA
ATOM     41  N   THR A   7      59.597  83.089  25.583  0.00  0.00    -0.296 N 
ATOM     42  H   THR A   7      58.818  82.525  25.187  0.00  0.00    +0.150 HD
BRANCH  41  43
ATOM     43  CA  THR A   7      59.305  84.239  26.429  0.00  0.00    +0.164 C 
BRANCH  43  44
ATOM     44  CB  THR A   7      57.821  84.617  26.333  0.00  0.00    +0.136 C 
ATOM     45  CG2 THR A   7      57.580  85.996  26.959  0.00  0.00    +0.034 C 
BRANCH  44  46
ATOM     46  OG1 THR A   7      57.423  84.624  24.957  0.00  0.00    -0.382 OA
ATOM     47  HG1 THR A   7      57.562  83.724  24.570  0.00  0.00    +0.210 HD
ENDBRANCH  44  46
ENDBRANCH  43  44
BRANCH  43  48
ATOM     48  C   THR A   7      59.689  84.033  27.889  0.00  0.00    +0.229 C 
ATOM     49  O   THR A   7      59.980  84.997  28.580  0.00  0.00    -0.286 OA
ENDBRANCH  43  48
ENDBRANCH  41  43
ENDBRANCH  37  39
ENDBRANCH  35  37
ENDBRANCH  32  33
BRANCH  32  50
ATOM     50  CB  GLU A   5      60.981  77.420  26.125  0.00  0.00    +0.041 C 
BRANCH  50  51
ATOM     51  CG  GLU A   5      60.660  75.965  26.503  0.00  0.00    +0.116 C 
BRANCH  51  52
ATOM     52  CD  GLU A   5      60.000  75.185  25.364  0.00  0.00    +0.365 C 
ATOM     53  OE2 GLU A   5      59.169  74.284  25.658  0.00  0.00    -0.246 OA
ATOM     54  OE1 GLU A   5      60.313  75.482  24.171  0.00  0.00    -0.246 OA
ENDBRANCH  51  52
ENDBRANCH  50  51
ENDBRANCH  32  50
ENDBRANCH  30  32
ENDBRANCH   1  28
BRANCH   1  55
ATOM     55  CB  MET A   4      56.096  75.647  25.017  0.00  0.00    +0.041 C 
BRANCH  55  56
ATOM     56  CG  MET A   4      54.792  75.203  24.316  0.00  0.00    +0.060 C 
BRANCH  56  57
ATOM     57  SD  MET A   4      54.455  73.402  24.416  0.00  0.00    -0.139 S 
ATOM     58  CE  MET A   4      54.049  73.197  26.197  0.00  0.00    +0.069 C 
ENDBRANCH  56  57
ENDBRANCH  55  56
ENDBRANCH   1  55
TORSDOF 26
REMARK  Name = ../refined-set-2016/1nc1/1nc1_pocket.pdb
REMARK  219 active torsions:
REMARK  status: ('A' for Active; 'I' for Inactive)
REMARK    1  A    between atoms: _1  and  _3
REMARK    2  A    between atoms: _3  and  _4
REMARK    3  A    between atoms: _6  and  _8
REMARK    4  A    between atoms: _8  and  _9
REMARK    5  A    between atoms: _12  and  _14
REMARK    6  A    between atoms: _14  and  _15
REMARK    7  A    between atoms: _14  and  _17
REMARK    8  A    between atoms: _17  and  _18
REMARK    9  A    between atoms: _18  and  _19
REMARK   10  A    between atoms: _21  and  _23
REMARK   11  A    between atoms: _23  and  _24
REMARK   12  A    between atoms: _23  and  _26
REMARK   13  A    between atoms: _26  and  _27
REMARK   14  A    between atoms: _27  and  _28
REMARK   15  A    between atoms: _31  and  _33
REMARK   16  A    between atoms: _33  and  _34
REMARK   17  A    between atoms: _33  and  _36
REMARK   18  A    between atoms: _36  and  _37
REMARK   19  A    between atoms: _37  and  _38
REMARK   20  A    between atoms: _41  and  _43
REMARK   21  A    between atoms: _43  and  _44
REMARK   22  A    between atoms: _43  and  _46
REMARK   23  A    between atoms: _46  and  _47
REMARK   24  A    between atoms: _49  and  _51
REMARK   25  A    between atoms: _51  and  _52
REMARK   26  A    between atoms: _54  and  _56
REMARK   27  A    between atoms: _56  and  _57
REMARK   28  A    between atoms: _56  and  _59
REMARK   29  A    between atoms: _59  and  _60
REMARK   30  A    between atoms: _63  and  _65
REMARK   31  A    between atoms: _65  and  _66
REMARK   32  A    between atoms: _68  and  _70
REMARK   33  A    between atoms: _70  and  _71
REMARK   34  A    between atoms: _70  and  _73
REMARK   35  A    between atoms: _73  and  _74
REMARK   36  A    between atoms: _74  and  _75
REMARK   37  A    between atoms: _75  and  _76
REMARK   38  A    between atoms: _76  and  _77
REMARK   39  A    between atoms: _81  and  _83
REMARK   40  A    between atoms: _83  and  _84
REMARK   41  A    between atoms: _87  and  _89
REMARK   42  A    between atoms: _89  and  _90
REMARK   43  A    between atoms: _93  and  _95
REMARK   44  A    between atoms: _95  and  _96
REMARK   45  A    between atoms: _95  and  _98
REMARK   46  A    between atoms: _98  and  _99
REMARK   47  A    between atoms: _104  and  _106
REMARK   48  A    between atoms: _106  and  _107
REMARK   49  A    between atoms: _106  and  _109
REMARK   50  A    between atoms: _109  and  _110
REMARK   51  A    between atoms: _113  and  _115
REMARK   52  A    between atoms: _115  and  _116
REMARK   53  A    between atoms: _118  and  _120
REMARK   54  A    between atoms: _120  and  _121
REMARK   55  A    between atoms: _120  and  _123
REMARK   56  A    between atoms: _123  and  _124
REMARK   57  A    between atoms: _126  and  _128
REMARK   58  A    between atoms: _128  and  _129
REMARK   59  A    between atoms: _132  and  _134
REMARK   60  A    between atoms: _134  and  _135
REMARK   61  A    between atoms: _137  and  _139
REMARK   62  A    between atoms: _139  and  _140
REMARK   63  A    between atoms: _142  and  _144
REMARK   64  A    between atoms: _144  and  _145
REMARK   65  A    between atoms: _144  and  _147
REMARK   66  A    between atoms: _147  and  _148
REMARK   67  A    between atoms: _151  and  _153
REMARK   68  A    between atoms: _153  and  _154
REMARK   69  A    between atoms: _153  and  _156
REMARK   70  A    between atoms: _156  and  _157
REMARK   71  A    between atoms: _162  and  _164
REMARK   72  A    between atoms: _164  and  _165
REMARK   73  A    between atoms: _164  and  _167
REMARK   74  A    between atoms: _167  and  _168
REMARK   75  A    between atoms: _171  and  _173
REMARK   76  A    between atoms: _173  and  _174
REMARK   77  A    between atoms: _173  and  _176
REMARK   78  A    between atoms: _179  and  _181
REMARK   79  A    between atoms: _181  and  _182
REMARK   80  A    between atoms: _181  and  _184
REMARK   81  A    between atoms: _184  and  _185
REMARK   82  A    between atoms: _187  and  _189
REMARK   83  A    between atoms: _189  and  _190
REMARK   84  A    between atoms: _192  and  _194
REMARK   85  A    between atoms: _194  and  _195
REMARK   86  A    between atoms: _194  and  _197
REMARK   87  A    between atoms: _197  and  _198
REMARK   88  A    between atoms: _201  and  _203
REMARK   89  A    between atoms: _203  and  _204
REMARK   90  A    between atoms: _207  and  _209
REMARK   91  A    between atoms: _209  and  _210
REMARK   92  A    between atoms: _209  and  _212
REMARK   93  A    between atoms: _212  and  _213
REMARK   94  A    between atoms: _219  and  _221
REMARK   95  A    between atoms: _221  and  _222
REMARK   96  A    between atoms: _221  and  _224
REMARK   97  A    between atoms: _224  and  _225
REMARK   98  A    between atoms: _228  and  _230
REMARK   99  A    between atoms: _230  and  _231
REMARK  100  A    between atoms: _230  and  _233
REMARK  101  A    between atoms: _233  and  _234
REMARK  102  A    between atoms: _239  and  _241
REMARK  103  A    between atoms: _241  and  _242
REMARK  104  A    between atoms: _244  and  _246
REMARK  105  A    between atoms: _246  and  _247
REMARK  106  A    between atoms: _246  and  _249
REMARK  107  A    between atoms: _249  and  _250
REMARK  108  A    between atoms: _253  and  _255
REMARK  109  A    between atoms: _255  and  _256
REMARK  110  A    between atoms: _255  and  _258
REMARK  111  A    between atoms: _258  and  _259
REMARK  112  A    between atoms: _262  and  _264
REMARK  113  A    between atoms: _264  and  _265
REMARK  114  A    between atoms: _268  and  _270
REMARK  115  A    between atoms: _270  and  _271
REMARK  116  A    between atoms: _270  and  _273
REMARK  117  A    between atoms: _276  and  _278
REMARK  118  A    between atoms: _278  and  _279
REMARK  119  A    between atoms: _278  and  _281
REMARK  120  A    between atoms: _281  and  _282
REMARK  121  A    between atoms: _282  and  _283
REMARK  122  A    between atoms: _286  and  _288
REMARK  123  A    between atoms: _288  and  _289
REMARK  124  A    between atoms: _288  and  _291
REMARK  125  A    between atoms: _291  and  _292
REMARK  126  A    between atoms: _292  and  _293
REMARK  127  A    between atoms: _295  and  _297
REMARK  128  A    between atoms: _297  and  _298
REMARK  129  A    between atoms: _297  and  _300
REMARK  130  A    between atoms: _300  and  _301
REMARK  131  A    between atoms: _301  and  _302
REMARK  132  A    between atoms: _305  and  _307
REMARK  133  A    between atoms: _307  and  _308
REMARK  134  A    between atoms: _311  and  _313
REMARK  135  A    between atoms: _313  and  _314
REMARK  136  A    between atoms: _313  and  _316
REMARK  137  A    between atoms: _316  and  _317
REMARK  138  A    between atoms: _320  and  _322
REMARK  139  A    between atoms: _322  and  _323
REMARK  140  A    between atoms: _322  and  _325
REMARK  141  A    between atoms: _325  and  _326
REMARK  142  A    between atoms: _329  and  _331
REMARK  143  A    between atoms: _331  and  _332
REMARK  144  A    between atoms: _331  and  _334
REMARK  145  A    between atoms: _334  and  _335
REMARK  146  A    between atoms: _335  and  _336
REMARK  147  A    between atoms: _336  and  _337
REMARK  148  A    between atoms: _346  and  _348
REMARK  149  A    between atoms: _348  and  _349
REMARK  150  A    between atoms: _352  and  _354
REMARK  151  A    between atoms: _354  and  _355
REMARK  152  A    between atoms: _354  and  _357
REMARK  153  A    between atoms: _357  and  _358
REMARK  154  A    between atoms: _361  and  _363
REMARK  155  A    between atoms: _363  and  _364
REMARK  156  A    between atoms: _363  and  _366
REMARK  157  A    between atoms: _366  and  _367
REMARK  158  A    between atoms: _369  and  _371
REMARK  159  A    between atoms: _371  and  _372
REMARK  160  A    between atoms: _371  and  _374
REMARK  161  A    between atoms: _374  and  _375
REMARK  162  A    between atoms: _378  and  _380
REMARK  163  A    between atoms: _380  and  _381
REMARK  164  A    between atoms: _380  and  _383
REMARK  165  A    between atoms: _386  and  _388
REMARK  166  A    between atoms: _388  and  _389
REMARK  167  A    between atoms: _392  and  _394
REMARK  168  A    between atoms: _394  and  _395
REMARK  169  A    between atoms: _394  and  _397
REMARK  170  A    between atoms: _397  and  _398
REMARK  171  A    between atoms: _401  and  _403
REMARK  172  A    between atoms: _403  and  _404
REMARK  173  A    between atoms: _403  and  _406
REMARK  174  A    between atoms: _406  and  _407
REMARK  175  A    between atoms: _409  and  _411
REMARK  176  A    between atoms: _411  and  _412
REMARK  177  A    between atoms: _411  and  _414
REMARK  178  A    between atoms: _414  and  _415
REMARK  179  A    between atoms: _420  and  _422
REMARK  180  A    between atoms: _422  and  _423
REMARK  181  A    between atoms: _422  and  _425
REMARK  182  A    between atoms: _425  and  _426
REMARK  183  A    between atoms: _428  and  _430
REMARK  184  A    between atoms: _430  and  _431
REMARK  185  A    between atoms: _430  and  _433
REMARK  186  A    between atoms: _433  and  _434
REMARK  187  A    between atoms: _440  and  _442
REMARK  188  A    between atoms: _442  and  _443
REMARK  189  A    between atoms: _442  and  _445
REMARK  190  A    between atoms: _445  and  _446
REMARK  191  A    between atoms: _449  and  _451
REMARK  192  A    between atoms: _451  and  _452
REMARK  193  A    between atoms: _451  and  _454
REMARK  194  A    between atoms: _454  and  _455
REMARK  195  A    between atoms: _458  and  _460
REMARK  196  A    between atoms: _460  and  _461
REMARK  197  A    between atoms: _464  and  _466
REMARK  198  A    between atoms: _466  and  _467
REMARK  199  A    between atoms: _466  and  _469
REMARK  200  A    between atoms: _469  and  _470
REMARK  201  A    between atoms: _473  and  _475
REMARK  202  A    between atoms: _475  and  _476
REMARK  203  A    between atoms: _475  and  _478
REMARK  204  A    between atoms: _481  and  _483
REMARK  205  A    between atoms: _483  and  _484
REMARK  206  A    between atoms: _487  and  _489
REMARK  207  A    between atoms: _489  and  _490
REMARK  208  A    between atoms: _489  and  _492
REMARK  209  A    between atoms: _492  and  _493
REMARK  210  A    between atoms: _499  and  _501
REMARK  211  A    between atoms: _501  and  _502
REMARK  212  A    between atoms: _501  and  _504
REMARK  213  A    between atoms: _504  and  _505
REMARK  214  A    between atoms: _510  and  _511
REMARK  215  A    between atoms: _513  and  _515
REMARK  216  A    between atoms: _515  and  _516
REMARK  217  A    between atoms: _515  and  _518
REMARK  218  A    between atoms: _518  and  _519
REMARK  219  A    between atoms: _523  and  _524
REMARK                            x       y       z     vdW  Elec       q    Type
REMARK                         _______ _______ _______ _____ _____    ______ ____
ROOT
ATOM      1  CA  ILE A   1      63.778  82.554  28.777  0.00  0.00    +0.133 C 
ENDROOT
BRANCH   1   2
ATOM      2  N   ILE A   1      62.329  82.342  28.822  0.00  0.00    -0.239 NA
ATOM      3  H   ILE A   1      61.855  81.853  28.036  0.00  0.00    +0.142 HD
ENDBRANCH   1   2
BRANCH   1   4
ATOM      4  C   ILE A   1      64.089  84.070  28.666  0.00  0.00    +0.224 C 
ATOM      5  O   ILE A   1      65.006  84.577  29.306  0.00  0.00    -0.287 OA
ENDBRANCH   1   4
BRANCH   1   6
ATOM      6  CB  ILE A   1      64.402  81.810  27.562  0.00  0.00    +0.023 C 
ATOM      7  CG2 ILE A   1      65.860  82.312  27.325  0.00  0.00    +0.002 C 
BRANCH   6   8
ATOM      8  CG1 ILE A   1      64.334  80.296  27.800  0.00  0.00    +0.002 C 
ATOM      9  CD1 ILE A   1      64.650  79.442  26.577  0.00  0.00    +0.000 C 
ENDBRANCH   6   8
ENDBRANCH   1   6
TORSDOF 4
REMARK  Name = ../refined-set-2016/1nc1/1nc1_pocket.pdb
REMARK  219 active torsions:
REMARK  status: ('A' for Active; 'I' for Inactive)
REMARK    1  A    between atoms: _1  and  _3
REMARK    2  A    between atoms: _3  and  _4
REMARK    3  A    between atoms: _6  and  _8
REMARK    4  A    between atoms: _8  and  _9
REMARK    5  A    between atoms: _12  and  _14
REMARK    6  A    between atoms: _14  and  _15
REMARK    7  A    between atoms: _14  and  _17
REMARK    8  A    between atoms: _17  and  _18
REMARK    9  A    between atoms: _18  and  _19
REMARK   10  A    between atoms: _21  and  _23
REMARK   11  A    between atoms: _23  and  _24
REMARK   12  A    between atoms: _23  and  _26
REMARK   13  A    between atoms: _26  and  _27
REMARK   14  A    between atoms: _27  and  _28
REMARK   15  A    between atoms: _31  and  _33
REMARK   16  A    between atoms: _33  and  _34
REMARK   17  A    between atoms: _33  and  _36
REMARK   18  A    between atoms: _36  and  _37
REMARK   19  A    between atoms: _37  and  _38
REMARK   20  A    between atoms: _41  and  _43
REMARK   21  A    between atoms: _43  and  _44
REMARK   22  A    between atoms: _43  and  _46
REMARK   23  A    between atoms: _46  and  _47
REMARK   24  A    between atoms: _49  and  _51
REMARK   25  A    between atoms: _51  and  _52
REMARK   26  A    between atoms: _54  and  _56
REMARK   27  A    between atoms: _56  and  _57
REMARK   28  A    between atoms: _56  and  _59
REMARK   29  A    between atoms: _59  and  _60
REMARK   30  A    between atoms: _63  and  _65
REMARK   31  A    between atoms: _65  and  _66
REMARK   32  A    between atoms: _68  and  _70
REMARK   33  A    between atoms: _70  and  _71
REMARK   34  A    between atoms: _70  and  _73
REMARK   35  A    between atoms: _73  and  _74
REMARK   36  A    between atoms: _74  and  _75
REMARK   37  A    between atoms: _75  and  _76
REMARK   38  A    between atoms: _76  and  _77
REMARK   39  A    between atoms: _81  and  _83
REMARK   40  A    between atoms: _83  and  _84
REMARK   41  A    between atoms: _87  and  _89
REMARK   42  A    between atoms: _89  and  _90
REMARK   43  A    between atoms: _93  and  _95
REMARK   44  A    between atoms: _95  and  _96
REMARK   45  A    between atoms: _95  and  _98
REMARK   46  A    between atoms: _98  and  _99
REMARK   47  A    between atoms: _104  and  _106
REMARK   48  A    between atoms: _106  and  _107
REMARK   49  A    between atoms: _106  and  _109
REMARK   50  A    between atoms: _109  and  _110
REMARK   51  A    between atoms: _113  and  _115
REMARK   52  A    between atoms: _115  and  _116
REMARK   53  A    between atoms: _118  and  _120
REMARK   54  A    between atoms: _120  and  _121
REMARK   55  A    between atoms: _120  and  _123
REMARK   56  A    between atoms: _123  and  _124
REMARK   57  A    between atoms: _126  and  _128
REMARK   58  A    between atoms: _128  and  _129
REMARK   59  A    between atoms: _132  and  _134
REMARK   60  A    between atoms: _134  and  _135
REMARK   61  A    between atoms: _137  and  _139
REMARK   62  A    between atoms: _139  and  _140
REMARK   63  A    between atoms: _142  and  _144
REMARK   64  A    between atoms: _144  and  _145
REMARK   65  A    between atoms: _144  and  _147
REMARK   66  A    between atoms: _147  and  _148
REMARK   67  A    between atoms: _151  and  _153
REMARK   68  A    between atoms: _153  and  _154
REMARK   69  A    between atoms: _153  and  _156
REMARK   70  A    between atoms: _156  and  _157
REMARK   71  A    between atoms: _162  and  _164
REMARK   72  A    between atoms: _164  and  _165
REMARK   73  A    between atoms: _164  and  _167
REMARK   74  A    between atoms: _167  and  _168
REMARK   75  A    between atoms: _171  and  _173
REMARK   76  A    between atoms: _173  and  _174
REMARK   77  A    between atoms: _173  and  _176
REMARK   78  A    between atoms: _179  and  _181
REMARK   79  A    between atoms: _181  and  _182
REMARK   80  A    between atoms: _181  and  _184
REMARK   81  A    between atoms: _184  and  _185
REMARK   82  A    between atoms: _187  and  _189
REMARK   83  A    between atoms: _189  and  _190
REMARK   84  A    between atoms: _192  and  _194
REMARK   85  A    between atoms: _194  and  _195
REMARK   86  A    between atoms: _194  and  _197
REMARK   87  A    between atoms: _197  and  _198
REMARK   88  A    between atoms: _201  and  _203
REMARK   89  A    between atoms: _203  and  _204
REMARK   90  A    between atoms: _207  and  _209
REMARK   91  A    between atoms: _209  and  _210
REMARK   92  A    between atoms: _209  and  _212
REMARK   93  A    between atoms: _212  and  _213
REMARK   94  A    between atoms: _219  and  _221
REMARK   95  A    between atoms: _221  and  _222
REMARK   96  A    between atoms: _221  and  _224
REMARK   97  A    between atoms: _224  and  _225
REMARK   98  A    between atoms: _228  and  _230
REMARK   99  A    between atoms: _230  and  _231
REMARK  100  A    between atoms: _230  and  _233
REMARK  101  A    between atoms: _233  and  _234
REMARK  102  A    between atoms: _239  and  _241
REMARK  103  A    between atoms: _241  and  _242
REMARK  104  A    between atoms: _244  and  _246
REMARK  105  A    between atoms: _246  and  _247
REMARK  106  A    between atoms: _246  and  _249
REMARK  107  A    between atoms: _249  and  _250
REMARK  108  A    between atoms: _253  and  _255
REMARK  109  A    between atoms: _255  and  _256
REMARK  110  A    between atoms: _255  and  _258
REMARK  111  A    between atoms: _258  and  _259
REMARK  112  A    between atoms: _262  and  _264
REMARK  113  A    between atoms: _264  and  _265
REMARK  114  A    between atoms: _268  and  _270
REMARK  115  A    between atoms: _270  and  _271
REMARK  116  A    between atoms: _270  and  _273
REMARK  117  A    between atoms: _276  and  _278
REMARK  118  A    between atoms: _278  and  _279
REMARK  119  A    between atoms: _278  and  _281
REMARK  120  A    between atoms: _281  and  _282
REMARK  121  A    between atoms: _282  and  _283
REMARK  122  A    between atoms: _286  and  _288
REMARK  123  A    between atoms: _288  and  _289
REMARK  124  A    between atoms: _288  and  _291
REMARK  125  A    between atoms: _291  and  _292
REMARK  126  A    between atoms: _292  and  _293
REMARK  127  A    between atoms: _295  and  _297
REMARK  128  A    between atoms: _297  and  _298
REMARK  129  A    between atoms: _297  and  _300
REMARK  130  A    between atoms: _300  and  _301
REMARK  131  A    between atoms: _301  and  _302
REMARK  132  A    between atoms: _305  and  _307
REMARK  133  A    between atoms: _307  and  _308
REMARK  134  A    between atoms: _311  and  _313
REMARK  135  A    between atoms: _313  and  _314
REMARK  136  A    between atoms: _313  and  _316
REMARK  137  A    between atoms: _316  and  _317
REMARK  138  A    between atoms: _320  and  _322
REMARK  139  A    between atoms: _322  and  _323
REMARK  140  A    between atoms: _322  and  _325
REMARK  141  A    between atoms: _325  and  _326
REMARK  142  A    between atoms: _329  and  _331
REMARK  143  A    between atoms: _331  and  _332
REMARK  144  A    between atoms: _331  and  _334
REMARK  145  A    between atoms: _334  and  _335
REMARK  146  A    between atoms: _335  and  _336
REMARK  147  A    between atoms: _336  and  _337
REMARK  148  A    between atoms: _346  and  _348
REMARK  149  A    between atoms: _348  and  _349
REMARK  150  A    between atoms: _352  and  _354
REMARK  151  A    between atoms: _354  and  _355
REMARK  152  A    between atoms: _354  and  _357
REMARK  153  A    between atoms: _357  and  _358
REMARK  154  A    between atoms: _361  and  _363
REMARK  155  A    between atoms: _363  and  _364
REMARK  156  A    between atoms: _363  and  _366
REMARK  157  A    between atoms: _366  and  _367
REMARK  158  A    between atoms: _369  and  _371
REMARK  159  A    between atoms: _371  and  _372
REMARK  160  A    between atoms: _371  and  _374
REMARK  161  A    between atoms: _374  and  _375
REMARK  162  A    between atoms: _378  and  _380
REMARK  163  A    between atoms: _380  and  _381
REMARK  164  A    between atoms: _380  and  _383
REMARK  165  A    between atoms: _386  and  _388
REMARK  166  A    between atoms: _388  and  _389
REMARK  167  A    between atoms: _392  and  _394
REMARK  168  A    between atoms: _394  and  _395
REMARK  169  A    between atoms: _394  and  _397
REMARK  170  A    between atoms: _397  and  _398
REMARK  171  A    between atoms: _401  and  _403
REMARK  172  A    between atoms: _403  and  _404
REMARK  173  A    between atoms: _403  and  _406
REMARK  174  A    between atoms: _406  and  _407
REMARK  175  A    between atoms: _409  and  _411
REMARK  176  A    between atoms: _411  and  _412
REMARK  177  A    between atoms: _411  and  _414
REMARK  178  A    between atoms: _414  and  _415
REMARK  179  A    between atoms: _420  and  _422
REMARK  180  A    between atoms: _422  and  _423
REMARK  181  A    between atoms: _422  and  _425
REMARK  182  A    between atoms: _425  and  _426
REMARK  183  A    between atoms: _428  and  _430
REMARK  184  A    between atoms: _430  and  _431
REMARK  185  A    between atoms: _430  and  _433
REMARK  186  A    between atoms: _433  and  _434
REMARK  187  A    between atoms: _440  and  _442
REMARK  188  A    between atoms: _442  and  _443
REMARK  189  A    between atoms: _442  and  _445
REMARK  190  A    between atoms: _445  and  _446
REMARK  191  A    between atoms: _449  and  _451
REMARK  192  A    between atoms: _451  and  _452
REMARK  193  A    between atoms: _451  and  _454
REMARK  194  A    between atoms: _454  and  _455
REMARK  195  A    between atoms: _458  and  _460
REMARK  196  A    between atoms: _460  and  _461
REMARK  197  A    between atoms: _464  and  _466
REMARK  198  A    between atoms: _466  and  _467
REMARK  199  A    between atoms: _466  and  _469
REMARK  200  A    between atoms: _469  and  _470
REMARK  201  A    between atoms: _473  and  _475
REMARK  202  A    between atoms: _475  and  _476
REMARK  203  A    between atoms: _475  and  _478
REMARK  204  A    between atoms: _481  and  _483
REMARK  205  A    between atoms: _483  and  _484
REMARK  206  A    between atoms: _487  and  _489
REMARK  207  A    between atoms: _489  and  _490
REMARK  208  A    between atoms: _489  and  _492
REMARK  209  A    between atoms: _492  and  _493
REMARK  210  A    between atoms: _499  and  _501
REMARK  211  A    between atoms: _501  and  _502
REMARK  212  A    between atoms: _501  and  _504
REMARK  213  A    between atoms: _504  and  _505
REMARK  214  A    between atoms: _510  and  _511
REMARK  215  A    between atoms: _513  and  _515
REMARK  216  A    between atoms: _515  and  _516
REMARK  217  A    between atoms: _515  and  _518
REMARK  218  A    between atoms: _518  and  _519
REMARK  219  A    between atoms: _523  and  _524
REMARK                            x       y       z     vdW  Elec       q    Type
REMARK                         _______ _______ _______ _____ _____    ______ ____
ROOT
ATOM      1  CA  SER A   4      58.340  72.126  12.390  0.00  0.00    +0.178 C 
ENDROOT
BRANCH   1   3
ATOM      2  C   ILE A   3      59.398  74.164  11.573  0.00  0.00    +0.241 C 
ATOM      3  N   SER A   4      58.580  73.565  12.425  0.00  0.00    -0.295 N 
ATOM      4  H   SER A   4      58.093  74.139  13.142  0.00  0.00    +0.150 HD
ATOM      5  O   ILE A   3      60.034  73.545  10.703  0.00  0.00    -0.273 OA
BRANCH   2   6
ATOM      6  CA  ILE A   3      59.526  75.691  11.744  0.00  0.00    +0.149 C 
BRANCH   6   9
ATOM      7  C   ALA A   2      61.631  76.016  12.920  0.00  0.00    +0.241 C 
ATOM      8  O   ALA A   2      61.234  75.412  13.914  0.00  0.00    -0.273 OA
ATOM      9  N   ILE A   3      60.890  76.171  11.830  0.00  0.00    -0.297 N 
ATOM     10  H   ILE A   3      61.304  76.655  11.008  0.00  0.00    +0.150 HD
BRANCH   7  11
ATOM     11  CA  ALA A   2      63.048  76.618  12.879  0.00  0.00    +0.149 C 
ATOM     12  CB  ALA A   2      64.023  75.602  12.297  0.00  0.00    +0.031 C 
BRANCH  11  14
ATOM     13  C   ARG A   1      63.860  78.230  14.522  0.00  0.00    +0.238 C 
ATOM     14  N   ALA A   2      63.446  77.001  14.246  0.00  0.00    -0.297 N 
ATOM     15  H   ALA A   2      63.401  76.294  15.008  0.00  0.00    +0.150 HD
ATOM     16  O   ARG A   1      64.000  79.079  13.658  0.00  0.00    -0.274 OA
BRANCH  13  17
ATOM     17  CA  ARG A   1      64.189  78.547  15.979  0.00  0.00    +0.145 C 
BRANCH  17  18
ATOM     18  N   ARG A   1      64.778  79.882  16.093  0.00  0.00    -0.238 NA
ATOM     19  H   ARG A   1      64.191  80.715  15.886  0.00  0.00    +0.142 HD
ENDBRANCH  17  18
BRANCH  17  20
ATOM     20  CB  ARG A   1      62.904  78.464  16.846  0.00  0.00    +0.030 C 
BRANCH  20  21
ATOM     21  CG  ARG A   1      63.187  78.415  18.368  0.00  0.00    +0.045 C 
BRANCH  21  22
ATOM     22  CD  ARG A   1      61.920  78.690  19.231  0.00  0.00    +0.174 C 
BRANCH  22  23
ATOM     23  NE  ARG A   1      62.141  78.546  20.675  0.00  0.00    -0.265 N 
ATOM     24  CZ  ARG A   1      61.779  77.481  21.401  0.00  0.00    +0.342 C 
ATOM     25  NH2 ARG A   1      61.994  77.460  22.715  0.00  0.00    -0.292 N 
ATOM     26 HH21 ARG A   1      61.711  76.631  23.275  0.00  0.00    +0.255 HD
ATOM     27 HH22 ARG A   1      62.445  78.273  23.181  0.00  0.00    +0.255 HD
ATOM     28  NH1 ARG A   1      61.175  76.443  20.835  0.00  0.00    -0.292 N 
ATOM     29 HH11 ARG A   1      60.900  75.623  21.413  0.00  0.00    +0.255 HD
ATOM     30 HH12 ARG A   1      60.977  76.450  19.814  0.00  0.00    +0.255 HD
ATOM     31  HE  ARG A   1      62.614  79.329  21.171  0.00  0.00    +0.259 HD
ENDBRANCH  22  23
ENDBRANCH  21  22
ENDBRANCH  20  21
ENDBRANCH  17  20
ENDBRANCH  13  17
ENDBRANCH  11  14
ENDBRANCH   7  11
ENDBRANCH   6   9
BRANCH   6  32
ATOM     32  CB  ILE A   3      58.782  76.416  10.589  0.00  0.00    +0.027 C 
ATOM     33  CG2 ILE A   3      57.349  75.938  10.505  0.00  0.00    +0.002 C 
BRANCH  32  34
ATOM     34  CG1 ILE A   3      58.818  77.945  10.807  0.00  0.00    +0.002 C 
ATOM     35  CD1 ILE A   3      58.198  78.495  12.119  0.00  0.00    +0.000 C 
ENDBRANCH  32  34
ENDBRANCH   6  32
ENDBRANCH   2   6
ENDBRANCH   1   3
BRANCH   1  36
ATOM     36  C   SER A   4      56.899  71.834  11.952  0.00  0.00    +0.243 C 
ATOM     37  N   ASP A   5      56.055  72.860  11.969  0.00  0.00    -0.296 N 
ATOM     38  H   ASP A   5      56.423  73.795  12.237  0.00  0.00    +0.150 HD
ATOM     39  O   SER A   4      56.579  70.708  11.588  0.00  0.00    -0.273 OA
BRANCH  37  40
ATOM     40  CA  ASP A   5      54.635  72.747  11.631  0.00  0.00    +0.160 C 
BRANCH  40  41
ATOM     41  C   ASP A   5      54.041  74.152  11.572  0.00  0.00    +0.241 C 
ATOM     42  O   ASP A   5      54.702  75.135  11.922  0.00  0.00    -0.273 OA
ATOM     43  N   VAL A   6      52.781  74.241  11.159  0.00  0.00    -0.297 N 
ATOM     44  H   VAL A   6      52.267  73.378  10.891  0.00  0.00    +0.150 HD
BRANCH  43  45
ATOM     45  CA  VAL A   6      52.109  75.535  11.076  0.00  0.00    +0.149 C 
BRANCH  45  46
ATOM     46  C   VAL A   6      51.015  75.689  12.135  0.00  0.00    +0.241 C 
ATOM     47  N   ALA A   7      51.184  75.003  13.260  0.00  0.00    -0.297 N 
ATOM     48  H   ALA A   7      52.004  74.370  13.349  0.00  0.00    +0.150 HD
ATOM     49  O   VAL A   6      50.023  76.379  11.927  0.00  0.00    -0.273 OA
BRANCH  47  50
ATOM     50  CA  ALA A   7      50.247  75.115  14.377  0.00  0.00    +0.149 C 
ATOM     51  CB  ALA A   7      50.405  76.495  15.006  0.00  0.00    +0.031 C 
BRANCH  50  52
ATOM     52  C   ALA A   7      48.763  74.860  14.075  0.00  0.00    +0.241 C 
ATOM     53  O   ALA A   7      47.887  75.332  14.815  0.00  0.00    -0.273 OA
ATOM     54  N   ASP A   8      48.473  74.115  13.009  0.00  0.00    -0.298 N 
ATOM     55  H   ASP A   8      49.240  73.736  12.417  0.00  0.00    +0.150 HD
BRANCH  54  56
ATOM     56  CA  ASP A   8      47.079  73.829  12.669  0.00  0.00    +0.148 C 
BRANCH  56  57
ATOM     57  C   ASP A   8      46.673  72.417  13.112  0.00  0.00    +0.227 C 
ATOM     58  O   ASP A   8      47.404  71.752  13.866  0.00  0.00    -0.286 OA
ENDBRANCH  56  57
BRANCH  56  59
ATOM     59  CB  ASP A   8      46.837  74.044  11.154  0.00  0.00    +0.142 C 
BRANCH  59  60
ATOM     60  CG  ASP A   8      47.590  73.047  10.275  0.00  0.00    +0.367 C 
ATOM     61  OD2 ASP A   8      48.164  72.069  10.806  0.00  0.00    -0.246 OA
ATOM     62  OD1 ASP A   8      47.595  73.243   9.034  0.00  0.00    -0.246 OA
ENDBRANCH  59  60
ENDBRANCH  56  59
ENDBRANCH  54  56
ENDBRANCH  50  52
ENDBRANCH  47  50
ENDBRANCH  45  46
BRANCH  45  63
ATOM     63  CB  VAL A   6      51.506  75.761   9.675  0.00  0.00    +0.027 C 
ATOM     64  CG2 VAL A   6      50.564  74.617   9.322  0.00  0.00    +0.002 C 
ATOM     65  CG1 VAL A   6      52.633  75.849   8.638  0.00  0.00    +0.002 C 
ENDBRANCH  45  63
ENDBRANCH  43  45
ENDBRANCH  40  41
BRANCH  40  66
ATOM     66  CB  ASP A   5      53.911  71.966  12.725  0.00  0.00    +0.143 C 
BRANCH  66  67
ATOM     67  CG  ASP A   5      54.084  72.614  14.114  0.00  0.00    +0.367 C 
ATOM     68  OD2 ASP A   5      55.046  72.235  14.830  0.00  0.00    -0.246 OA
ATOM     69  OD1 ASP A   5      53.288  73.518  14.469  0.00  0.00    -0.246 OA
ENDBRANCH  66  67
ENDBRANCH  40  66
ENDBRANCH  37  40
ENDBRANCH   1  36
BRANCH   1  70
ATOM     70  CB  SER A   4      58.594  71.530  13.780  0.00  0.00    +0.166 C 
BRANCH  70  71
ATOM     71  OG  SER A   4      57.827  72.211  14.772  0.00  0.00    -0.380 OA
ATOM     72  H   SER A   4      56.864  72.126  14.559  0.00  0.00    +0.211 HD
ENDBRANCH  70  71
ENDBRANCH   1  70
TORSDOF 29
REMARK  Name = ../refined-set-2016/1nc1/1nc1_pocket.pdb
REMARK  219 active torsions:
REMARK  status: ('A' for Active; 'I' for Inactive)
REMARK    1  A    between atoms: _1  and  _3
REMARK    2  A    between atoms: _3  and  _4
REMARK    3  A    between atoms: _6  and  _8
REMARK    4  A    between atoms: _8  and  _9
REMARK    5  A    between atoms: _12  and  _14
REMARK    6  A    between atoms: _14  and  _15
REMARK    7  A    between atoms: _14  and  _17
REMARK    8  A    between atoms: _17  and  _18
REMARK    9  A    between atoms: _18  and  _19
REMARK   10  A    between atoms: _21  and  _23
REMARK   11  A    between atoms: _23  and  _24
REMARK   12  A    between atoms: _23  and  _26
REMARK   13  A    between atoms: _26  and  _27
REMARK   14  A    between atoms: _27  and  _28
REMARK   15  A    between atoms: _31  and  _33
REMARK   16  A    between atoms: _33  and  _34
REMARK   17  A    between atoms: _33  and  _36
REMARK   18  A    between atoms: _36  and  _37
REMARK   19  A    between atoms: _37  and  _38
REMARK   20  A    between atoms: _41  and  _43
REMARK   21  A    between atoms: _43  and  _44
REMARK   22  A    between atoms: _43  and  _46
REMARK   23  A    between atoms: _46  and  _47
REMARK   24  A    between atoms: _49  and  _51
REMARK   25  A    between atoms: _51  and  _52
REMARK   26  A    between atoms: _54  and  _56
REMARK   27  A    between atoms: _56  and  _57
REMARK   28  A    between atoms: _56  and  _59
REMARK   29  A    between atoms: _59  and  _60
REMARK   30  A    between atoms: _63  and  _65
REMARK   31  A    between atoms: _65  and  _66
REMARK   32  A    between atoms: _68  and  _70
REMARK   33  A    between atoms: _70  and  _71
REMARK   34  A    between atoms: _70  and  _73
REMARK   35  A    between atoms: _73  and  _74
REMARK   36  A    between atoms: _74  and  _75
REMARK   37  A    between atoms: _75  and  _76
REMARK   38  A    between atoms: _76  and  _77
REMARK   39  A    between atoms: _81  and  _83
REMARK   40  A    between atoms: _83  and  _84
REMARK   41  A    between atoms: _87  and  _89
REMARK   42  A    between atoms: _89  and  _90
REMARK   43  A    between atoms: _93  and  _95
REMARK   44  A    between atoms: _95  and  _96
REMARK   45  A    between atoms: _95  and  _98
REMARK   46  A    between atoms: _98  and  _99
REMARK   47  A    between atoms: _104  and  _106
REMARK   48  A    between atoms: _106  and  _107
REMARK   49  A    between atoms: _106  and  _109
REMARK   50  A    between atoms: _109  and  _110
REMARK   51  A    between atoms: _113  and  _115
REMARK   52  A    between atoms: _115  and  _116
REMARK   53  A    between atoms: _118  and  _120
REMARK   54  A    between atoms: _120  and  _121
REMARK   55  A    between atoms: _120  and  _123
REMARK   56  A    between atoms: _123  and  _124
REMARK   57  A    between atoms: _126  and  _128
REMARK   58  A    between atoms: _128  and  _129
REMARK   59  A    between atoms: _132  and  _134
REMARK   60  A    between atoms: _134  and  _135
REMARK   61  A    between atoms: _137  and  _139
REMARK   62  A    between atoms: _139  and  _140
REMARK   63  A    between atoms: _142  and  _144
REMARK   64  A    between atoms: _144  and  _145
REMARK   65  A    between atoms: _144  and  _147
REMARK   66  A    between atoms: _147  and  _148
REMARK   67  A    between atoms: _151  and  _153
REMARK   68  A    between atoms: _153  and  _154
REMARK   69  A    between atoms: _153  and  _156
REMARK   70  A    between atoms: _156  and  _157
REMARK   71  A    between atoms: _162  and  _164
REMARK   72  A    between atoms: _164  and  _165
REMARK   73  A    between atoms: _164  and  _167
REMARK   74  A    between atoms: _167  and  _168
REMARK   75  A    between atoms: _171  and  _173
REMARK   76  A    between atoms: _173  and  _174
REMARK   77  A    between atoms: _173  and  _176
REMARK   78  A    between atoms: _179  and  _181
REMARK   79  A    between atoms: _181  and  _182
REMARK   80  A    between atoms: _181  and  _184
REMARK   81  A    between atoms: _184  and  _185
REMARK   82  A    between atoms: _187  and  _189
REMARK   83  A    between atoms: _189  and  _190
REMARK   84  A    between atoms: _192  and  _194
REMARK   85  A    between atoms: _194  and  _195
REMARK   86  A    between atoms: _194  and  _197
REMARK   87  A    between atoms: _197  and  _198
REMARK   88  A    between atoms: _201  and  _203
REMARK   89  A    between atoms: _203  and  _204
REMARK   90  A    between atoms: _207  and  _209
REMARK   91  A    between atoms: _209  and  _210
REMARK   92  A    between atoms: _209  and  _212
REMARK   93  A    between atoms: _212  and  _213
REMARK   94  A    between atoms: _219  and  _221
REMARK   95  A    between atoms: _221  and  _222
REMARK   96  A    between atoms: _221  and  _224
REMARK   97  A    between atoms: _224  and  _225
REMARK   98  A    between atoms: _228  and  _230
REMARK   99  A    between atoms: _230  and  _231
REMARK  100  A    between atoms: _230  and  _233
REMARK  101  A    between atoms: _233  and  _234
REMARK  102  A    between atoms: _239  and  _241
REMARK  103  A    between atoms: _241  and  _242
REMARK  104  A    between atoms: _244  and  _246
REMARK  105  A    between atoms: _246  and  _247
REMARK  106  A    between atoms: _246  and  _249
REMARK  107  A    between atoms: _249  and  _250
REMARK  108  A    between atoms: _253  and  _255
REMARK  109  A    between atoms: _255  and  _256
REMARK  110  A    between atoms: _255  and  _258
REMARK  111  A    between atoms: _258  and  _259
REMARK  112  A    between atoms: _262  and  _264
REMARK  113  A    between atoms: _264  and  _265
REMARK  114  A    between atoms: _268  and  _270
REMARK  115  A    between atoms: _270  and  _271
REMARK  116  A    between atoms: _270  and  _273
REMARK  117  A    between atoms: _276  and  _278
REMARK  118  A    between atoms: _278  and  _279
REMARK  119  A    between atoms: _278  and  _281
REMARK  120  A    between atoms: _281  and  _282
REMARK  121  A    between atoms: _282  and  _283
REMARK  122  A    between atoms: _286  and  _288
REMARK  123  A    between atoms: _288  and  _289
REMARK  124  A    between atoms: _288  and  _291
REMARK  125  A    between atoms: _291  and  _292
REMARK  126  A    between atoms: _292  and  _293
REMARK  127  A    between atoms: _295  and  _297
REMARK  128  A    between atoms: _297  and  _298
REMARK  129  A    between atoms: _297  and  _300
REMARK  130  A    between atoms: _300  and  _301
REMARK  131  A    between atoms: _301  and  _302
REMARK  132  A    between atoms: _305  and  _307
REMARK  133  A    between atoms: _307  and  _308
REMARK  134  A    between atoms: _311  and  _313
REMARK  135  A    between atoms: _313  and  _314
REMARK  136  A    between atoms: _313  and  _316
REMARK  137  A    between atoms: _316  and  _317
REMARK  138  A    between atoms: _320  and  _322
REMARK  139  A    between atoms: _322  and  _323
REMARK  140  A    between atoms: _322  and  _325
REMARK  141  A    between atoms: _325  and  _326
REMARK  142  A    between atoms: _329  and  _331
REMARK  143  A    between atoms: _331  and  _332
REMARK  144  A    between atoms: _331  and  _334
REMARK  145  A    between atoms: _334  and  _335
REMARK  146  A    between atoms: _335  and  _336
REMARK  147  A    between atoms: _336  and  _337
REMARK  148  A    between atoms: _346  and  _348
REMARK  149  A    between atoms: _348  and  _349
REMARK  150  A    between atoms: _352  and  _354
REMARK  151  A    between atoms: _354  and  _355
REMARK  152  A    between atoms: _354  and  _357
REMARK  153  A    between atoms: _357  and  _358
REMARK  154  A    between atoms: _361  and  _363
REMARK  155  A    between atoms: _363  and  _364
REMARK  156  A    between atoms: _363  and  _366
REMARK  157  A    between atoms: _366  and  _367
REMARK  158  A    between atoms: _369  and  _371
REMARK  159  A    between atoms: _371  and  _372
REMARK  160  A    between atoms: _371  and  _374
REMARK  161  A    between atoms: _374  and  _375
REMARK  162  A    between atoms: _378  and  _380
REMARK  163  A    between atoms: _380  and  _381
REMARK  164  A    between atoms: _380  and  _383
REMARK  165  A    between atoms: _386  and  _388
REMARK  166  A    between atoms: _388  and  _389
REMARK  167  A    between atoms: _392  and  _394
REMARK  168  A    between atoms: _394  and  _395
REMARK  169  A    between atoms: _394  and  _397
REMARK  170  A    between atoms: _397  and  _398
REMARK  171  A    between atoms: _401  and  _403
REMARK  172  A    between atoms: _403  and  _404
REMARK  173  A    between atoms: _403  and  _406
REMARK  174  A    between atoms: _406  and  _407
REMARK  175  A    between atoms: _409  and  _411
REMARK  176  A    between atoms: _411  and  _412
REMARK  177  A    between atoms: _411  and  _414
REMARK  178  A    between atoms: _414  and  _415
REMARK  179  A    between atoms: _420  and  _422
REMARK  180  A    between atoms: _422  and  _423
REMARK  181  A    between atoms: _422  and  _425
REMARK  182  A    between atoms: _425  and  _426
REMARK  183  A    between atoms: _428  and  _430
REMARK  184  A    between atoms: _430  and  _431
REMARK  185  A    between atoms: _430  and  _433
REMARK  186  A    between atoms: _433  and  _434
REMARK  187  A    between atoms: _440  and  _442
REMARK  188  A    between atoms: _442  and  _443
REMARK  189  A    between atoms: _442  and  _445
REMARK  190  A    between atoms: _445  and  _446
REMARK  191  A    between atoms: _449  and  _451
REMARK  192  A    between atoms: _451  and  _452
REMARK  193  A    between atoms: _451  and  _454
REMARK  194  A    between atoms: _454  and  _455
REMARK  195  A    between atoms: _458  and  _460
REMARK  196  A    between atoms: _460  and  _461
REMARK  197  A    between atoms: _464  and  _466
REMARK  198  A    between atoms: _466  and  _467
REMARK  199  A    between atoms: _466  and  _469
REMARK  200  A    between atoms: _469  and  _470
REMARK  201  A    between atoms: _473  and  _475
REMARK  202  A    between atoms: _475  and  _476
REMARK  203  A    between atoms: _475  and  _478
REMARK  204  A    between atoms: _481  and  _483
REMARK  205  A    between atoms: _483  and  _484
REMARK  206  A    between atoms: _487  and  _489
REMARK  207  A    between atoms: _489  and  _490
REMARK  208  A    between atoms: _489  and  _492
REMARK  209  A    between atoms: _492  and  _493
REMARK  210  A    between atoms: _499  and  _501
REMARK  211  A    between atoms: _501  and  _502
REMARK  212  A    between atoms: _501  and  _504
REMARK  213  A    between atoms: _504  and  _505
REMARK  214  A    between atoms: _510  and  _511
REMARK  215  A    between atoms: _513  and  _515
REMARK  216  A    between atoms: _515  and  _516
REMARK  217  A    between atoms: _515  and  _518
REMARK  218  A    between atoms: _518  and  _519
REMARK  219  A    between atoms: _523  and  _524
REMARK                            x       y       z     vdW  Elec       q    Type
REMARK                         _______ _______ _______ _____ _____    ______ ____
ROOT
ATOM      1  C   SER A   1      51.180  68.980  14.537  0.00  0.00    +0.241 C 
ATOM      2  N   HIS A   2      50.311  68.152  15.106  0.00  0.00    -0.298 N 
ATOM      3  H   HIS A   2      49.294  68.357  15.033  0.00  0.00    +0.150 HD
ATOM      4  O   SER A   1      52.397  68.810  14.600  0.00  0.00    -0.274 OA
ENDROOT
BRANCH   1   5
ATOM      5  CA  SER A   1      50.615  70.181  13.784  0.00  0.00    +0.174 C 
BRANCH   5   6
ATOM      6  N   SER A   1      49.399  69.958  13.012  0.00  0.00    -0.236 NA
ATOM      7  H   SER A   1      48.625  70.650  13.074  0.00  0.00    +0.142 HD
ENDBRANCH   5   6
BRANCH   5   8
ATOM      8  CB  SER A   1      50.419  71.366  14.737  0.00  0.00    +0.163 C 
BRANCH   8   9
ATOM      9  OG  SER A   1      49.529  71.046  15.781  0.00  0.00    -0.380 OA
ATOM     10  H   SER A   1      49.425  71.830  16.376  0.00  0.00    +0.211 HD
ENDBRANCH   8   9
ENDBRANCH   5   8
ENDBRANCH   1   5
BRANCH   2  11
ATOM     11  CA  HIS A   2      50.745  66.961  15.832  0.00  0.00    +0.143 C 
BRANCH  11  12
ATOM     12  C   HIS A   2      51.579  66.025  14.922  0.00  0.00    +0.227 C 
ATOM     13  O   HIS A   2      52.680  65.575  15.275  0.00  0.00    -0.286 OA
ENDBRANCH  11  12
BRANCH  11  14
ATOM     14  CB  HIS A   2      49.513  66.210  16.362  0.00  0.00    +0.075 C 
BRANCH  14  15
ATOM     15  CG  HIS A   2      49.833  64.905  17.024  0.00  0.00    +0.082 A 
ATOM     16  CD2 HIS A   2      49.851  64.550  18.330  0.00  0.00    +0.115 A 
ATOM     17  NE2 HIS A   2      50.277  63.243  18.393  0.00  0.00    -0.221 NA
ATOM     18  CE1 HIS A   2      50.510  62.810  17.167  0.00  0.00    +0.199 A 
ATOM     19  ND1 HIS A   2      50.247  63.792  16.321  0.00  0.00    -0.227 NA
ENDBRANCH  14  15
ENDBRANCH  11  14
ENDBRANCH   2  11
TORSDOF 8
REMARK  Name = ../refined-set-2016/1nc1/1nc1_pocket.pdb
REMARK  219 active torsions:
REMARK  status: ('A' for Active; 'I' for Inactive)
REMARK    1  A    between atoms: _1  and  _3
REMARK    2  A    between atoms: _3  and  _4
REMARK    3  A    between atoms: _6  and  _8
REMARK    4  A    between atoms: _8  and  _9
REMARK    5  A    between atoms: _12  and  _14
REMARK    6  A    between atoms: _14  and  _15
REMARK    7  A    between atoms: _14  and  _17
REMARK    8  A    between atoms: _17  and  _18
REMARK    9  A    between atoms: _18  and  _19
REMARK   10  A    between atoms: _21  and  _23
REMARK   11  A    between atoms: _23  and  _24
REMARK   12  A    between atoms: _23  and  _26
REMARK   13  A    between atoms: _26  and  _27
REMARK   14  A    between atoms: _27  and  _28
REMARK   15  A    between atoms: _31  and  _33
REMARK   16  A    between atoms: _33  and  _34
REMARK   17  A    between atoms: _33  and  _36
REMARK   18  A    between atoms: _36  and  _37
REMARK   19  A    between atoms: _37  and  _38
REMARK   20  A    between atoms: _41  and  _43
REMARK   21  A    between atoms: _43  and  _44
REMARK   22  A    between atoms: _43  and  _46
REMARK   23  A    between atoms: _46  and  _47
REMARK   24  A    between atoms: _49  and  _51
REMARK   25  A    between atoms: _51  and  _52
REMARK   26  A    between atoms: _54  and  _56
REMARK   27  A    between atoms: _56  and  _57
REMARK   28  A    between atoms: _56  and  _59
REMARK   29  A    between atoms: _59  and  _60
REMARK   30  A    between atoms: _63  and  _65
REMARK   31  A    between atoms: _65  and  _66
REMARK   32  A    between atoms: _68  and  _70
REMARK   33  A    between atoms: _70  and  _71
REMARK   34  A    between atoms: _70  and  _73
REMARK   35  A    between atoms: _73  and  _74
REMARK   36  A    between atoms: _74  and  _75
REMARK   37  A    between atoms: _75  and  _76
REMARK   38  A    between atoms: _76  and  _77
REMARK   39  A    between atoms: _81  and  _83
REMARK   40  A    between atoms: _83  and  _84
REMARK   41  A    between atoms: _87  and  _89
REMARK   42  A    between atoms: _89  and  _90
REMARK   43  A    between atoms: _93  and  _95
REMARK   44  A    between atoms: _95  and  _96
REMARK   45  A    between atoms: _95  and  _98
REMARK   46  A    between atoms: _98  and  _99
REMARK   47  A    between atoms: _104  and  _106
REMARK   48  A    between atoms: _106  and  _107
REMARK   49  A    between atoms: _106  and  _109
REMARK   50  A    between atoms: _109  and  _110
REMARK   51  A    between atoms: _113  and  _115
REMARK   52  A    between atoms: _115  and  _116
REMARK   53  A    between atoms: _118  and  _120
REMARK   54  A    between atoms: _120  and  _121
REMARK   55  A    between atoms: _120  and  _123
REMARK   56  A    between atoms: _123  and  _124
REMARK   57  A    between atoms: _126  and  _128
REMARK   58  A    between atoms: _128  and  _129
REMARK   59  A    between atoms: _132  and  _134
REMARK   60  A    between atoms: _134  and  _135
REMARK   61  A    between atoms: _137  and  _139
REMARK   62  A    between atoms: _139  and  _140
REMARK   63  A    between atoms: _142  and  _144
REMARK   64  A    between atoms: _144  and  _145
REMARK   65  A    between atoms: _144  and  _147
REMARK   66  A    between atoms: _147  and  _148
REMARK   67  A    between atoms: _151  and  _153
REMARK   68  A    between atoms: _153  and  _154
REMARK   69  A    between atoms: _153  and  _156
REMARK   70  A    between atoms: _156  and  _157
REMARK   71  A    between atoms: _162  and  _164
REMARK   72  A    between atoms: _164  and  _165
REMARK   73  A    between atoms: _164  and  _167
REMARK   74  A    between atoms: _167  and  _168
REMARK   75  A    between atoms: _171  and  _173
REMARK   76  A    between atoms: _173  and  _174
REMARK   77  A    between atoms: _173  and  _176
REMARK   78  A    between atoms: _179  and  _181
REMARK   79  A    between atoms: _181  and  _182
REMARK   80  A    between atoms: _181  and  _184
REMARK   81  A    between atoms: _184  and  _185
REMARK   82  A    between atoms: _187  and  _189
REMARK   83  A    between atoms: _189  and  _190
REMARK   84  A    between atoms: _192  and  _194
REMARK   85  A    between atoms: _194  and  _195
REMARK   86  A    between atoms: _194  and  _197
REMARK   87  A    between atoms: _197  and  _198
REMARK   88  A    between atoms: _201  and  _203
REMARK   89  A    between atoms: _203  and  _204
REMARK   90  A    between atoms: _207  and  _209
REMARK   91  A    between atoms: _209  and  _210
REMARK   92  A    between atoms: _209  and  _212
REMARK   93  A    between atoms: _212  and  _213
REMARK   94  A    between atoms: _219  and  _221
REMARK   95  A    between atoms: _221  and  _222
REMARK   96  A    between atoms: _221  and  _224
REMARK   97  A    between atoms: _224  and  _225
REMARK   98  A    between atoms: _228  and  _230
REMARK   99  A    between atoms: _230  and  _231
REMARK  100  A    between atoms: _230  and  _233
REMARK  101  A    between atoms: _233  and  _234
REMARK  102  A    between atoms: _239  and  _241
REMARK  103  A    between atoms: _241  and  _242
REMARK  104  A    between atoms: _244  and  _246
REMARK  105  A    between atoms: _246  and  _247
REMARK  106  A    between atoms: _246  and  _249
REMARK  107  A    between atoms: _249  and  _250
REMARK  108  A    between atoms: _253  and  _255
REMARK  109  A    between atoms: _255  and  _256
REMARK  110  A    between atoms: _255  and  _258
REMARK  111  A    between atoms: _258  and  _259
REMARK  112  A    between atoms: _262  and  _264
REMARK  113  A    between atoms: _264  and  _265
REMARK  114  A    between atoms: _268  and  _270
REMARK  115  A    between atoms: _270  and  _271
REMARK  116  A    between atoms: _270  and  _273
REMARK  117  A    between atoms: _276  and  _278
REMARK  118  A    between atoms: _278  and  _279
REMARK  119  A    between atoms: _278  and  _281
REMARK  120  A    between atoms: _281  and  _282
REMARK  121  A    between atoms: _282  and  _283
REMARK  122  A    between atoms: _286  and  _288
REMARK  123  A    between atoms: _288  and  _289
REMARK  124  A    between atoms: _288  and  _291
REMARK  125  A    between atoms: _291  and  _292
REMARK  126  A    between atoms: _292  and  _293
REMARK  127  A    between atoms: _295  and  _297
REMARK  128  A    between atoms: _297  and  _298
REMARK  129  A    between atoms: _297  and  _300
REMARK  130  A    between atoms: _300  and  _301
REMARK  131  A    between atoms: _301  and  _302
REMARK  132  A    between atoms: _305  and  _307
REMARK  133  A    between atoms: _307  and  _308
REMARK  134  A    between atoms: _311  and  _313
REMARK  135  A    between atoms: _313  and  _314
REMARK  136  A    between atoms: _313  and  _316
REMARK  137  A    between atoms: _316  and  _317
REMARK  138  A    between atoms: _320  and  _322
REMARK  139  A    between atoms: _322  and  _323
REMARK  140  A    between atoms: _322  and  _325
REMARK  141  A    between atoms: _325  and  _326
REMARK  142  A    between atoms: _329  and  _331
REMARK  143  A    between atoms: _331  and  _332
REMARK  144  A    between atoms: _331  and  _334
REMARK  145  A    between atoms: _334  and  _335
REMARK  146  A    between atoms: _335  and  _336
REMARK  147  A    between atoms: _336  and  _337
REMARK  148  A    between atoms: _346  and  _348
REMARK  149  A    between atoms: _348  and  _349
REMARK  150  A    between atoms: _352  and  _354
REMARK  151  A    between atoms: _354  and  _355
REMARK  152  A    between atoms: _354  and  _357
REMARK  153  A    between atoms: _357  and  _358
REMARK  154  A    between atoms: _361  and  _363
REMARK  155  A    between atoms: _363  and  _364
REMARK  156  A    between atoms: _363  and  _366
REMARK  157  A    between atoms: _366  and  _367
REMARK  158  A    between atoms: _369  and  _371
REMARK  159  A    between atoms: _371  and  _372
REMARK  160  A    between atoms: _371  and  _374
REMARK  161  A    between atoms: _374  and  _375
REMARK  162  A    between atoms: _378  and  _380
REMARK  163  A    between atoms: _380  and  _381
REMARK  164  A    between atoms: _380  and  _383
REMARK  165  A    between atoms: _386  and  _388
REMARK  166  A    between atoms: _388  and  _389
REMARK  167  A    between atoms: _392  and  _394
REMARK  168  A    between atoms: _394  and  _395
REMARK  169  A    between atoms: _394  and  _397
REMARK  170  A    between atoms: _397  and  _398
REMARK  171  A    between atoms: _401  and  _403
REMARK  172  A    between atoms: _403  and  _404
REMARK  173  A    between atoms: _403  and  _406
REMARK  174  A    between atoms: _406  and  _407
REMARK  175  A    between atoms: _409  and  _411
REMARK  176  A    between atoms: _411  and  _412
REMARK  177  A    between atoms: _411  and  _414
REMARK  178  A    between atoms: _414  and  _415
REMARK  179  A    between atoms: _420  and  _422
REMARK  180  A    between atoms: _422  and  _423
REMARK  181  A    between atoms: _422  and  _425
REMARK  182  A    between atoms: _425  and  _426
REMARK  183  A    between atoms: _428  and  _430
REMARK  184  A    between atoms: _430  and  _431
REMARK  185  A    between atoms: _430  and  _433
REMARK  186  A    between atoms: _433  and  _434
REMARK  187  A    between atoms: _440  and  _442
REMARK  188  A    between atoms: _442  and  _443
REMARK  189  A    between atoms: _442  and  _445
REMARK  190  A    between atoms: _445  and  _446
REMARK  191  A    between atoms: _449  and  _451
REMARK  192  A    between atoms: _451  and  _452
REMARK  193  A    between atoms: _451  and  _454
REMARK  194  A    between atoms: _454  and  _455
REMARK  195  A    between atoms: _458  and  _460
REMARK  196  A    between atoms: _460  and  _461
REMARK  197  A    between atoms: _464  and  _466
REMARK  198  A    between atoms: _466  and  _467
REMARK  199  A    between atoms: _466  and  _469
REMARK  200  A    between atoms: _469  and  _470
REMARK  201  A    between atoms: _473  and  _475
REMARK  202  A    between atoms: _475  and  _476
REMARK  203  A    between atoms: _475  and  _478
REMARK  204  A    between atoms: _481  and  _483
REMARK  205  A    between atoms: _483  and  _484
REMARK  206  A    between atoms: _487  and  _489
REMARK  207  A    between atoms: _489  and  _490
REMARK  208  A    between atoms: _489  and  _492
REMARK  209  A    between atoms: _492  and  _493
REMARK  210  A    between atoms: _499  and  _501
REMARK  211  A    between atoms: _501  and  _502
REMARK  212  A    between atoms: _501  and  _504
REMARK  213  A    between atoms: _504  and  _505
REMARK  214  A    between atoms: _510  and  _511
REMARK  215  A    between atoms: _513  and  _515
REMARK  216  A    between atoms: _515  and  _516
REMARK  217  A    between atoms: _515  and  _518
REMARK  218  A    between atoms: _518  and  _519
REMARK  219  A    between atoms: _523  and  _524
REMARK                            x       y       z     vdW  Elec       q    Type
REMARK                         _______ _______ _______ _____ _____    ______ ____
ROOT
ATOM      1  CA  PHE A   2      55.786  67.925  14.475  0.00  0.00    +0.153 C 
ENDROOT
BRANCH   1   3
ATOM      2  C   SER A   1      55.054  67.578  12.182  0.00  0.00    +0.241 C 
ATOM      3  N   PHE A   2      54.759  67.868  13.444  0.00  0.00    -0.297 N 
ATOM      4  H   PHE A   2      53.770  68.059  13.702  0.00  0.00    +0.150 HD
ATOM      5  O   SER A   1      56.199  67.330  11.805  0.00  0.00    -0.274 OA
BRANCH   2   6
ATOM      6  CA  SER A   1      53.877  67.542  11.206  0.00  0.00    +0.174 C 
BRANCH   6   7
ATOM      7  N   SER A   1      52.772  66.786  11.794  0.00  0.00    -0.236 NA
ATOM      8  H   SER A   1      51.843  67.241  11.898  0.00  0.00    +0.142 HD
ENDBRANCH   6   7
BRANCH   6   9
ATOM      9  CB  SER A   1      53.416  68.969  10.875  0.00  0.00    +0.163 C 
BRANCH   9  10
ATOM     10  OG  SER A   1      54.391  69.667  10.114  0.00  0.00    -0.380 OA
ATOM     11  H   SER A   1      55.234  69.721  10.630  0.00  0.00    +0.211 HD
ENDBRANCH   9  10
ENDBRANCH   6   9
ENDBRANCH   2   6
ENDBRANCH   1   3
BRANCH   1  12
ATOM     12  C   PHE A   2      56.550  66.590  14.546  0.00  0.00    +0.241 C 
ATOM     13  N   ASP A   3      55.827  65.478  14.662  0.00  0.00    -0.298 N 
ATOM     14  H   ASP A   3      54.789  65.542  14.687  0.00  0.00    +0.150 HD
ATOM     15  O   PHE A   2      57.781  66.574  14.489  0.00  0.00    -0.273 OA
BRANCH  13  16
ATOM     16  CA  ASP A   3      56.473  64.160  14.755  0.00  0.00    +0.148 C 
BRANCH  16  17
ATOM     17  C   ASP A   3      57.324  63.834  13.555  0.00  0.00    +0.227 C 
ATOM     18  O   ASP A   3      58.311  63.107  13.660  0.00  0.00    -0.286 OA
ENDBRANCH  16  17
BRANCH  16  19
ATOM     19  CB  ASP A   3      55.450  63.038  14.907  0.00  0.00    +0.142 C 
BRANCH  19  20
ATOM     20  CG  ASP A   3      54.720  63.093  16.223  0.00  0.00    +0.367 C 
ATOM     21  OD2 ASP A   3      55.357  63.385  17.260  0.00  0.00    -0.246 OA
ATOM     22  OD1 ASP A   3      53.499  62.827  16.224  0.00  0.00    -0.246 OA
ENDBRANCH  19  20
ENDBRANCH  16  19
ENDBRANCH  13  16
ENDBRANCH   1  12
BRANCH   1  23
ATOM     23  CB  PHE A   2      55.137  68.231  15.827  0.00  0.00    +0.055 C 
BRANCH  23  24
ATOM     24  CG  PHE A   2      56.122  68.420  16.962  0.00  0.00    -0.020 A 
ATOM     25  CD2 PHE A   2      56.301  67.418  17.913  0.00  0.00    -0.004 A 
ATOM     26  CE2 PHE A   2      57.168  67.600  19.002  0.00  0.00    -0.000 A 
ATOM     27  CZ  PHE A   2      57.877  68.818  19.143  0.00  0.00    -0.000 A 
ATOM     28  CE1 PHE A   2      57.707  69.825  18.186  0.00  0.00    -0.000 A 
ATOM     29  CD1 PHE A   2      56.831  69.619  17.101  0.00  0.00    -0.004 A 
ENDBRANCH  23  24
ENDBRANCH   1  23
TORSDOF 12
REMARK  Name = ../refined-set-2016/1nc1/1nc1_pocket.pdb
REMARK  219 active torsions:
REMARK  status: ('A' for Active; 'I' for Inactive)
REMARK    1  A    between atoms: _1  and  _3
REMARK    2  A    between atoms: _3  and  _4
REMARK    3  A    between atoms: _6  and  _8
REMARK    4  A    between atoms: _8  and  _9
REMARK    5  A    between atoms: _12  and  _14
REMARK    6  A    between atoms: _14  and  _15
REMARK    7  A    between atoms: _14  and  _17
REMARK    8  A    between atoms: _17  and  _18
REMARK    9  A    between atoms: _18  and  _19
REMARK   10  A    between atoms: _21  and  _23
REMARK   11  A    between atoms: _23  and  _24
REMARK   12  A    between atoms: _23  and  _26
REMARK   13  A    between atoms: _26  and  _27
REMARK   14  A    between atoms: _27  and  _28
REMARK   15  A    between atoms: _31  and  _33
REMARK   16  A    between atoms: _33  and  _34
REMARK   17  A    between atoms: _33  and  _36
REMARK   18  A    between atoms: _36  and  _37
REMARK   19  A    between atoms: _37  and  _38
REMARK   20  A    between atoms: _41  and  _43
REMARK   21  A    between atoms: _43  and  _44
REMARK   22  A    between atoms: _43  and  _46
REMARK   23  A    between atoms: _46  and  _47
REMARK   24  A    between atoms: _49  and  _51
REMARK   25  A    between atoms: _51  and  _52
REMARK   26  A    between atoms: _54  and  _56
REMARK   27  A    between atoms: _56  and  _57
REMARK   28  A    between atoms: _56  and  _59
REMARK   29  A    between atoms: _59  and  _60
REMARK   30  A    between atoms: _63  and  _65
REMARK   31  A    between atoms: _65  and  _66
REMARK   32  A    between atoms: _68  and  _70
REMARK   33  A    between atoms: _70  and  _71
REMARK   34  A    between atoms: _70  and  _73
REMARK   35  A    between atoms: _73  and  _74
REMARK   36  A    between atoms: _74  and  _75
REMARK   37  A    between atoms: _75  and  _76
REMARK   38  A    between atoms: _76  and  _77
REMARK   39  A    between atoms: _81  and  _83
REMARK   40  A    between atoms: _83  and  _84
REMARK   41  A    between atoms: _87  and  _89
REMARK   42  A    between atoms: _89  and  _90
REMARK   43  A    between atoms: _93  and  _95
REMARK   44  A    between atoms: _95  and  _96
REMARK   45  A    between atoms: _95  and  _98
REMARK   46  A    between atoms: _98  and  _99
REMARK   47  A    between atoms: _104  and  _106
REMARK   48  A    between atoms: _106  and  _107
REMARK   49  A    between atoms: _106  and  _109
REMARK   50  A    between atoms: _109  and  _110
REMARK   51  A    between atoms: _113  and  _115
REMARK   52  A    between atoms: _115  and  _116
REMARK   53  A    between atoms: _118  and  _120
REMARK   54  A    between atoms: _120  and  _121
REMARK   55  A    between atoms: _120  and  _123
REMARK   56  A    between atoms: _123  and  _124
REMARK   57  A    between atoms: _126  and  _128
REMARK   58  A    between atoms: _128  and  _129
REMARK   59  A    between atoms: _132  and  _134
REMARK   60  A    between atoms: _134  and  _135
REMARK   61  A    between atoms: _137  and  _139
REMARK   62  A    between atoms: _139  and  _140
REMARK   63  A    between atoms: _142  and  _144
REMARK   64  A    between atoms: _144  and  _145
REMARK   65  A    between atoms: _144  and  _147
REMARK   66  A    between atoms: _147  and  _148
REMARK   67  A    between atoms: _151  and  _153
REMARK   68  A    between atoms: _153  and  _154
REMARK   69  A    between atoms: _153  and  _156
REMARK   70  A    between atoms: _156  and  _157
REMARK   71  A    between atoms: _162  and  _164
REMARK   72  A    between atoms: _164  and  _165
REMARK   73  A    between atoms: _164  and  _167
REMARK   74  A    between atoms: _167  and  _168
REMARK   75  A    between atoms: _171  and  _173
REMARK   76  A    between atoms: _173  and  _174
REMARK   77  A    between atoms: _173  and  _176
REMARK   78  A    between atoms: _179  and  _181
REMARK   79  A    between atoms: _181  and  _182
REMARK   80  A    between atoms: _181  and  _184
REMARK   81  A    between atoms: _184  and  _185
REMARK   82  A    between atoms: _187  and  _189
REMARK   83  A    between atoms: _189  and  _190
REMARK   84  A    between atoms: _192  and  _194
REMARK   85  A    between atoms: _194  and  _195
REMARK   86  A    between atoms: _194  and  _197
REMARK   87  A    between atoms: _197  and  _198
REMARK   88  A    between atoms: _201  and  _203
REMARK   89  A    between atoms: _203  and  _204
REMARK   90  A    between atoms: _207  and  _209
REMARK   91  A    between atoms: _209  and  _210
REMARK   92  A    between atoms: _209  and  _212
REMARK   93  A    between atoms: _212  and  _213
REMARK   94  A    between atoms: _219  and  _221
REMARK   95  A    between atoms: _221  and  _222
REMARK   96  A    between atoms: _221  and  _224
REMARK   97  A    between atoms: _224  and  _225
REMARK   98  A    between atoms: _228  and  _230
REMARK   99  A    between atoms: _230  and  _231
REMARK  100  A    between atoms: _230  and  _233
REMARK  101  A    between atoms: _233  and  _234
REMARK  102  A    between atoms: _239  and  _241
REMARK  103  A    between atoms: _241  and  _242
REMARK  104  A    between atoms: _244  and  _246
REMARK  105  A    between atoms: _246  and  _247
REMARK  106  A    between atoms: _246  and  _249
REMARK  107  A    between atoms: _249  and  _250
REMARK  108  A    between atoms: _253  and  _255
REMARK  109  A    between atoms: _255  and  _256
REMARK  110  A    between atoms: _255  and  _258
REMARK  111  A    between atoms: _258  and  _259
REMARK  112  A    between atoms: _262  and  _264
REMARK  113  A    between atoms: _264  and  _265
REMARK  114  A    between atoms: _268  and  _270
REMARK  115  A    between atoms: _270  and  _271
REMARK  116  A    between atoms: _270  and  _273
REMARK  117  A    between atoms: _276  and  _278
REMARK  118  A    between atoms: _278  and  _279
REMARK  119  A    between atoms: _278  and  _281
REMARK  120  A    between atoms: _281  and  _282
REMARK  121  A    between atoms: _282  and  _283
REMARK  122  A    between atoms: _286  and  _288
REMARK  123  A    between atoms: _288  and  _289
REMARK  124  A    between atoms: _288  and  _291
REMARK  125  A    between atoms: _291  and  _292
REMARK  126  A    between atoms: _292  and  _293
REMARK  127  A    between atoms: _295  and  _297
REMARK  128  A    between atoms: _297  and  _298
REMARK  129  A    between atoms: _297  and  _300
REMARK  130  A    between atoms: _300  and  _301
REMARK  131  A    between atoms: _301  and  _302
REMARK  132  A    between atoms: _305  and  _307
REMARK  133  A    between atoms: _307  and  _308
REMARK  134  A    between atoms: _311  and  _313
REMARK  135  A    between atoms: _313  and  _314
REMARK  136  A    between atoms: _313  and  _316
REMARK  137  A    between atoms: _316  and  _317
REMARK  138  A    between atoms: _320  and  _322
REMARK  139  A    between atoms: _322  and  _323
REMARK  140  A    between atoms: _322  and  _325
REMARK  141  A    between atoms: _325  and  _326
REMARK  142  A    between atoms: _329  and  _331
REMARK  143  A    between atoms: _331  and  _332
REMARK  144  A    between atoms: _331  and  _334
REMARK  145  A    between atoms: _334  and  _335
REMARK  146  A    between atoms: _335  and  _336
REMARK  147  A    between atoms: _336  and  _337
REMARK  148  A    between atoms: _346  and  _348
REMARK  149  A    between atoms: _348  and  _349
REMARK  150  A    between atoms: _352  and  _354
REMARK  151  A    between atoms: _354  and  _355
REMARK  152  A    between atoms: _354  and  _357
REMARK  153  A    between atoms: _357  and  _358
REMARK  154  A    between atoms: _361  and  _363
REMARK  155  A    between atoms: _363  and  _364
REMARK  156  A    between atoms: _363  and  _366
REMARK  157  A    between atoms: _366  and  _367
REMARK  158  A    between atoms: _369  and  _371
REMARK  159  A    between atoms: _371  and  _372
REMARK  160  A    between atoms: _371  and  _374
REMARK  161  A    between atoms: _374  and  _375
REMARK  162  A    between atoms: _378  and  _380
REMARK  163  A    between atoms: _380  and  _381
REMARK  164  A    between atoms: _380  and  _383
REMARK  165  A    between atoms: _386  and  _388
REMARK  166  A    between atoms: _388  and  _389
REMARK  167  A    between atoms: _392  and  _394
REMARK  168  A    between atoms: _394  and  _395
REMARK  169  A    between atoms: _394  and  _397
REMARK  170  A    between atoms: _397  and  _398
REMARK  171  A    between atoms: _401  and  _403
REMARK  172  A    between atoms: _403  and  _404
REMARK  173  A    between atoms: _403  and  _406
REMARK  174  A    between atoms: _406  and  _407
REMARK  175  A    between atoms: _409  and  _411
REMARK  176  A    between atoms: _411  and  _412
REMARK  177  A    between atoms: _411  and  _414
REMARK  178  A    between atoms: _414  and  _415
REMARK  179  A    between atoms: _420  and  _422
REMARK  180  A    between atoms: _422  and  _423
REMARK  181  A    between atoms: _422  and  _425
REMARK  182  A    between atoms: _425  and  _426
REMARK  183  A    between atoms: _428  and  _430
REMARK  184  A    between atoms: _430  and  _431
REMARK  185  A    between atoms: _430  and  _433
REMARK  186  A    between atoms: _433  and  _434
REMARK  187  A    between atoms: _440  and  _442
REMARK  188  A    between atoms: _442  and  _443
REMARK  189  A    between atoms: _442  and  _445
REMARK  190  A    between atoms: _445  and  _446
REMARK  191  A    between atoms: _449  and  _451
REMARK  192  A    between atoms: _451  and  _452
REMARK  193  A    between atoms: _451  and  _454
REMARK  194  A    between atoms: _454  and  _455
REMARK  195  A    between atoms: _458  and  _460
REMARK  196  A    between atoms: _460  and  _461
REMARK  197  A    between atoms: _464  and  _466
REMARK  198  A    between atoms: _466  and  _467
REMARK  199  A    between atoms: _466  and  _469
REMARK  200  A    between atoms: _469  and  _470
REMARK  201  A    between atoms: _473  and  _475
REMARK  202  A    between atoms: _475  and  _476
REMARK  203  A    between atoms: _475  and  _478
REMARK  204  A    between atoms: _481  and  _483
REMARK  205  A    between atoms: _483  and  _484
REMARK  206  A    between atoms: _487  and  _489
REMARK  207  A    between atoms: _489  and  _490
REMARK  208  A    between atoms: _489  and  _492
REMARK  209  A    between atoms: _492  and  _493
REMARK  210  A    between atoms: _499  and  _501
REMARK  211  A    between atoms: _501  and  _502
REMARK  212  A    between atoms: _501  and  _504
REMARK  213  A    between atoms: _504  and  _505
REMARK  214  A    between atoms: _510  and  _511
REMARK  215  A    between atoms: _513  and  _515
REMARK  216  A    between atoms: _515  and  _516
REMARK  217  A    between atoms: _515  and  _518
REMARK  218  A    between atoms: _518  and  _519
REMARK  219  A    between atoms: _523  and  _524
REMARK                            x       y       z     vdW  Elec       q    Type
REMARK                         _______ _______ _______ _____ _____    ______ ____
ROOT
ATOM      1  CA  LEU A   1      61.028  67.972  14.274  0.00  0.00    +0.133 C 
ENDROOT
BRANCH   1   2
ATOM      2  N   LEU A   1      60.286  67.447  13.147  0.00  0.00    -0.239 NA
ATOM      3  H   LEU A   1      59.606  66.673  13.290  0.00  0.00    +0.142 HD
ENDBRANCH   1   2
BRANCH   1   4
ATOM      4  C   LEU A   1      62.532  67.878  13.988  0.00  0.00    +0.224 C 
ATOM      5  O   LEU A   1      63.272  68.819  14.258  0.00  0.00    -0.287 OA
ENDBRANCH   1   4
BRANCH   1   6
ATOM      6  CB  LEU A   1      60.684  67.203  15.558  0.00  0.00    +0.025 C 
BRANCH   6   7
ATOM      7  CG  LEU A   1      61.454  67.661  16.806  0.00  0.00    +0.002 C 
ATOM      8  CD2 LEU A   1      61.031  66.851  18.053  0.00  0.00    +0.000 C 
ATOM      9  CD1 LEU A   1      61.206  69.164  17.003  0.00  0.00    +0.000 C 
ENDBRANCH   6   7
ENDBRANCH   1   6
TORSDOF 4
REMARK  Name = ../refined-set-2016/1nc1/1nc1_pocket.pdb
REMARK  219 active torsions:
REMARK  status: ('A' for Active; 'I' for Inactive)
REMARK    1  A    between atoms: _1  and  _3
REMARK    2  A    between atoms: _3  and  _4
REMARK    3  A    between atoms: _6  and  _8
REMARK    4  A    between atoms: _8  and  _9
REMARK    5  A    between atoms: _12  and  _14
REMARK    6  A    between atoms: _14  and  _15
REMARK    7  A    between atoms: _14  and  _17
REMARK    8  A    between atoms: _17  and  _18
REMARK    9  A    between atoms: _18  and  _19
REMARK   10  A    between atoms: _21  and  _23
REMARK   11  A    between atoms: _23  and  _24
REMARK   12  A    between atoms: _23  and  _26
REMARK   13  A    between atoms: _26  and  _27
REMARK   14  A    between atoms: _27  and  _28
REMARK   15  A    between atoms: _31  and  _33
REMARK   16  A    between atoms: _33  and  _34
REMARK   17  A    between atoms: _33  and  _36
REMARK   18  A    between atoms: _36  and  _37
REMARK   19  A    between atoms: _37  and  _38
REMARK   20  A    between atoms: _41  and  _43
REMARK   21  A    between atoms: _43  and  _44
REMARK   22  A    between atoms: _43  and  _46
REMARK   23  A    between atoms: _46  and  _47
REMARK   24  A    between atoms: _49  and  _51
REMARK   25  A    between atoms: _51  and  _52
REMARK   26  A    between atoms: _54  and  _56
REMARK   27  A    between atoms: _56  and  _57
REMARK   28  A    between atoms: _56  and  _59
REMARK   29  A    between atoms: _59  and  _60
REMARK   30  A    between atoms: _63  and  _65
REMARK   31  A    between atoms: _65  and  _66
REMARK   32  A    between atoms: _68  and  _70
REMARK   33  A    between atoms: _70  and  _71
REMARK   34  A    between atoms: _70  and  _73
REMARK   35  A    between atoms: _73  and  _74
REMARK   36  A    between atoms: _74  and  _75
REMARK   37  A    between atoms: _75  and  _76
REMARK   38  A    between atoms: _76  and  _77
REMARK   39  A    between atoms: _81  and  _83
REMARK   40  A    between atoms: _83  and  _84
REMARK   41  A    between atoms: _87  and  _89
REMARK   42  A    between atoms: _89  and  _90
REMARK   43  A    between atoms: _93  and  _95
REMARK   44  A    between atoms: _95  and  _96
REMARK   45  A    between atoms: _95  and  _98
REMARK   46  A    between atoms: _98  and  _99
REMARK   47  A    between atoms: _104  and  _106
REMARK   48  A    between atoms: _106  and  _107
REMARK   49  A    between atoms: _106  and  _109
REMARK   50  A    between atoms: _109  and  _110
REMARK   51  A    between atoms: _113  and  _115
REMARK   52  A    between atoms: _115  and  _116
REMARK   53  A    between atoms: _118  and  _120
REMARK   54  A    between atoms: _120  and  _121
REMARK   55  A    between atoms: _120  and  _123
REMARK   56  A    between atoms: _123  and  _124
REMARK   57  A    between atoms: _126  and  _128
REMARK   58  A    between atoms: _128  and  _129
REMARK   59  A    between atoms: _132  and  _134
REMARK   60  A    between atoms: _134  and  _135
REMARK   61  A    between atoms: _137  and  _139
REMARK   62  A    between atoms: _139  and  _140
REMARK   63  A    between atoms: _142  and  _144
REMARK   64  A    between atoms: _144  and  _145
REMARK   65  A    between atoms: _144  and  _147
REMARK   66  A    between atoms: _147  and  _148
REMARK   67  A    between atoms: _151  and  _153
REMARK   68  A    between atoms: _153  and  _154
REMARK   69  A    between atoms: _153  and  _156
REMARK   70  A    between atoms: _156  and  _157
REMARK   71  A    between atoms: _162  and  _164
REMARK   72  A    between atoms: _164  and  _165
REMARK   73  A    between atoms: _164  and  _167
REMARK   74  A    between atoms: _167  and  _168
REMARK   75  A    between atoms: _171  and  _173
REMARK   76  A    between atoms: _173  and  _174
REMARK   77  A    between atoms: _173  and  _176
REMARK   78  A    between atoms: _179  and  _181
REMARK   79  A    between atoms: _181  and  _182
REMARK   80  A    between atoms: _181  and  _184
REMARK   81  A    between atoms: _184  and  _185
REMARK   82  A    between atoms: _187  and  _189
REMARK   83  A    between atoms: _189  and  _190
REMARK   84  A    between atoms: _192  and  _194
REMARK   85  A    between atoms: _194  and  _195
REMARK   86  A    between atoms: _194  and  _197
REMARK   87  A    between atoms: _197  and  _198
REMARK   88  A    between atoms: _201  and  _203
REMARK   89  A    between atoms: _203  and  _204
REMARK   90  A    between atoms: _207  and  _209
REMARK   91  A    between atoms: _209  and  _210
REMARK   92  A    between atoms: _209  and  _212
REMARK   93  A    between atoms: _212  and  _213
REMARK   94  A    between atoms: _219  and  _221
REMARK   95  A    between atoms: _221  and  _222
REMARK   96  A    between atoms: _221  and  _224
REMARK   97  A    between atoms: _224  and  _225
REMARK   98  A    between atoms: _228  and  _230
REMARK   99  A    between atoms: _230  and  _231
REMARK  100  A    between atoms: _230  and  _233
REMARK  101  A    between atoms: _233  and  _234
REMARK  102  A    between atoms: _239  and  _241
REMARK  103  A    between atoms: _241  and  _242
REMARK  104  A    between atoms: _244  and  _246
REMARK  105  A    between atoms: _246  and  _247
REMARK  106  A    between atoms: _246  and  _249
REMARK  107  A    between atoms: _249  and  _250
REMARK  108  A    between atoms: _253  and  _255
REMARK  109  A    between atoms: _255  and  _256
REMARK  110  A    between atoms: _255  and  _258
REMARK  111  A    between atoms: _258  and  _259
REMARK  112  A    between atoms: _262  and  _264
REMARK  113  A    between atoms: _264  and  _265
REMARK  114  A    between atoms: _268  and  _270
REMARK  115  A    between atoms: _270  and  _271
REMARK  116  A    between atoms: _270  and  _273
REMARK  117  A    between atoms: _276  and  _278
REMARK  118  A    between atoms: _278  and  _279
REMARK  119  A    between atoms: _278  and  _281
REMARK  120  A    between atoms: _281  and  _282
REMARK  121  A    between atoms: _282  and  _283
REMARK  122  A    between atoms: _286  and  _288
REMARK  123  A    between atoms: _288  and  _289
REMARK  124  A    between atoms: _288  and  _291
REMARK  125  A    between atoms: _291  and  _292
REMARK  126  A    between atoms: _292  and  _293
REMARK  127  A    between atoms: _295  and  _297
REMARK  128  A    between atoms: _297  and  _298
REMARK  129  A    between atoms: _297  and  _300
REMARK  130  A    between atoms: _300  and  _301
REMARK  131  A    between atoms: _301  and  _302
REMARK  132  A    between atoms: _305  and  _307
REMARK  133  A    between atoms: _307  and  _308
REMARK  134  A    between atoms: _311  and  _313
REMARK  135  A    between atoms: _313  and  _314
REMARK  136  A    between atoms: _313  and  _316
REMARK  137  A    between atoms: _316  and  _317
REMARK  138  A    between atoms: _320  and  _322
REMARK  139  A    between atoms: _322  and  _323
REMARK  140  A    between atoms: _322  and  _325
REMARK  141  A    between atoms: _325  and  _326
REMARK  142  A    between atoms: _329  and  _331
REMARK  143  A    between atoms: _331  and  _332
REMARK  144  A    between atoms: _331  and  _334
REMARK  145  A    between atoms: _334  and  _335
REMARK  146  A    between atoms: _335  and  _336
REMARK  147  A    between atoms: _336  and  _337
REMARK  148  A    between atoms: _346  and  _348
REMARK  149  A    between atoms: _348  and  _349
REMARK  150  A    between atoms: _352  and  _354
REMARK  151  A    between atoms: _354  and  _355
REMARK  152  A    between atoms: _354  and  _357
REMARK  153  A    between atoms: _357  and  _358
REMARK  154  A    between atoms: _361  and  _363
REMARK  155  A    between atoms: _363  and  _364
REMARK  156  A    between atoms: _363  and  _366
REMARK  157  A    between atoms: _366  and  _367
REMARK  158  A    between atoms: _369  and  _371
REMARK  159  A    between atoms: _371  and  _372
REMARK  160  A    between atoms: _371  and  _374
REMARK  161  A    between atoms: _374  and  _375
REMARK  162  A    between atoms: _378  and  _380
REMARK  163  A    between atoms: _380  and  _381
REMARK  164  A    between atoms: _380  and  _383
REMARK  165  A    between atoms: _386  and  _388
REMARK  166  A    between atoms: _388  and  _389
REMARK  167  A    between atoms: _392  and  _394
REMARK  168  A    between atoms: _394  and  _395
REMARK  169  A    between atoms: _394  and  _397
REMARK  170  A    between atoms: _397  and  _398
REMARK  171  A    between atoms: _401  and  _403
REMARK  172  A    between atoms: _403  and  _404
REMARK  173  A    between atoms: _403  and  _406
REMARK  174  A    between atoms: _406  and  _407
REMARK  175  A    between atoms: _409  and  _411
REMARK  176  A    between atoms: _411  and  _412
REMARK  177  A    between atoms: _411  and  _414
REMARK  178  A    between atoms: _414  and  _415
REMARK  179  A    between atoms: _420  and  _422
REMARK  180  A    between atoms: _422  and  _423
REMARK  181  A    between atoms: _422  and  _425
REMARK  182  A    between atoms: _425  and  _426
REMARK  183  A    between atoms: _428  and  _430
REMARK  184  A    between atoms: _430  and  _431
REMARK  185  A    between atoms: _430  and  _433
REMARK  186  A    between atoms: _433  and  _434
REMARK  187  A    between atoms: _440  and  _442
REMARK  188  A    between atoms: _442  and  _443
REMARK  189  A    between atoms: _442  and  _445
REMARK  190  A    between atoms: _445  and  _446
REMARK  191  A    between atoms: _449  and  _451
REMARK  192  A    between atoms: _451  and  _452
REMARK  193  A    between atoms: _451  and  _454
REMARK  194  A    between atoms: _454  and  _455
REMARK  195  A    between atoms: _458  and  _460
REMARK  196  A    between atoms: _460  and  _461
REMARK  197  A    between atoms: _464  and  _466
REMARK  198  A    between atoms: _466  and  _467
REMARK  199  A    between atoms: _466  and  _469
REMARK  200  A    between atoms: _469  and  _470
REMARK  201  A    between atoms: _473  and  _475
REMARK  202  A    between atoms: _475  and  _476
REMARK  203  A    between atoms: _475  and  _478
REMARK  204  A    between atoms: _481  and  _483
REMARK  205  A    between atoms: _483  and  _484
REMARK  206  A    between atoms: _487  and  _489
REMARK  207  A    between atoms: _489  and  _490
REMARK  208  A    between atoms: _489  and  _492
REMARK  209  A    between atoms: _492  and  _493
REMARK  210  A    between atoms: _499  and  _501
REMARK  211  A    between atoms: _501  and  _502
REMARK  212  A    between atoms: _501  and  _504
REMARK  213  A    between atoms: _504  and  _505
REMARK  214  A    between atoms: _510  and  _511
REMARK  215  A    between atoms: _513  and  _515
REMARK  216  A    between atoms: _515  and  _516
REMARK  217  A    between atoms: _515  and  _518
REMARK  218  A    between atoms: _518  and  _519
REMARK  219  A    between atoms: _523  and  _524
REMARK                            x       y       z     vdW  Elec       q    Type
REMARK                         _______ _______ _______ _____ _____    ______ ____
ROOT
ATOM      1  CA  ALA A   1      63.698  71.971  12.309  0.00  0.00    +0.133 C 
ATOM      2  CB  ALA A   1      62.454  72.210  13.168  0.00  0.00    +0.027 C 
ENDROOT
BRANCH   1   3
ATOM      3  N   ALA A   1      63.625  70.662  11.664  0.00  0.00    -0.239 NA
ATOM      4  H   ALA A   1      62.846  70.012  11.896  0.00  0.00    +0.142 HD
ENDBRANCH   1   3
BRANCH   1   5
ATOM      5  C   ALA A   1      64.960  72.049  13.174  0.00  0.00    +0.224 C 
ATOM      6  O   ALA A   1      65.671  73.060  13.169  0.00  0.00    -0.287 OA
ENDBRANCH   1   5
TORSDOF 2
REMARK  Name = ../refined-set-2016/1nc1/1nc1_pocket.pdb
REMARK  219 active torsions:
REMARK  status: ('A' for Active; 'I' for Inactive)
REMARK    1  A    between atoms: _1  and  _3
REMARK    2  A    between atoms: _3  and  _4
REMARK    3  A    between atoms: _6  and  _8
REMARK    4  A    between atoms: _8  and  _9
REMARK    5  A    between atoms: _12  and  _14
REMARK    6  A    between atoms: _14  and  _15
REMARK    7  A    between atoms: _14  and  _17
REMARK    8  A    between atoms: _17  and  _18
REMARK    9  A    between atoms: _18  and  _19
REMARK   10  A    between atoms: _21  and  _23
REMARK   11  A    between atoms: _23  and  _24
REMARK   12  A    between atoms: _23  and  _26
REMARK   13  A    between atoms: _26  and  _27
REMARK   14  A    between atoms: _27  and  _28
REMARK   15  A    between atoms: _31  and  _33
REMARK   16  A    between atoms: _33  and  _34
REMARK   17  A    between atoms: _33  and  _36
REMARK   18  A    between atoms: _36  and  _37
REMARK   19  A    between atoms: _37  and  _38
REMARK   20  A    between atoms: _41  and  _43
REMARK   21  A    between atoms: _43  and  _44
REMARK   22  A    between atoms: _43  and  _46
REMARK   23  A    between atoms: _46  and  _47
REMARK   24  A    between atoms: _49  and  _51
REMARK   25  A    between atoms: _51  and  _52
REMARK   26  A    between atoms: _54  and  _56
REMARK   27  A    between atoms: _56  and  _57
REMARK   28  A    between atoms: _56  and  _59
REMARK   29  A    between atoms: _59  and  _60
REMARK   30  A    between atoms: _63  and  _65
REMARK   31  A    between atoms: _65  and  _66
REMARK   32  A    between atoms: _68  and  _70
REMARK   33  A    between atoms: _70  and  _71
REMARK   34  A    between atoms: _70  and  _73
REMARK   35  A    between atoms: _73  and  _74
REMARK   36  A    between atoms: _74  and  _75
REMARK   37  A    between atoms: _75  and  _76
REMARK   38  A    between atoms: _76  and  _77
REMARK   39  A    between atoms: _81  and  _83
REMARK   40  A    between atoms: _83  and  _84
REMARK   41  A    between atoms: _87  and  _89
REMARK   42  A    between atoms: _89  and  _90
REMARK   43  A    between atoms: _93  and  _95
REMARK   44  A    between atoms: _95  and  _96
REMARK   45  A    between atoms: _95  and  _98
REMARK   46  A    between atoms: _98  and  _99
REMARK   47  A    between atoms: _104  and  _106
REMARK   48  A    between atoms: _106  and  _107
REMARK   49  A    between atoms: _106  and  _109
REMARK   50  A    between atoms: _109  and  _110
REMARK   51  A    between atoms: _113  and  _115
REMARK   52  A    between atoms: _115  and  _116
REMARK   53  A    between atoms: _118  and  _120
REMARK   54  A    between atoms: _120  and  _121
REMARK   55  A    between atoms: _120  and  _123
REMARK   56  A    between atoms: _123  and  _124
REMARK   57  A    between atoms: _126  and  _128
REMARK   58  A    between atoms: _128  and  _129
REMARK   59  A    between atoms: _132  and  _134
REMARK   60  A    between atoms: _134  and  _135
REMARK   61  A    between atoms: _137  and  _139
REMARK   62  A    between atoms: _139  and  _140
REMARK   63  A    between atoms: _142  and  _144
REMARK   64  A    between atoms: _144  and  _145
REMARK   65  A    between atoms: _144  and  _147
REMARK   66  A    between atoms: _147  and  _148
REMARK   67  A    between atoms: _151  and  _153
REMARK   68  A    between atoms: _153  and  _154
REMARK   69  A    between atoms: _153  and  _156
REMARK   70  A    between atoms: _156  and  _157
REMARK   71  A    between atoms: _162  and  _164
REMARK   72  A    between atoms: _164  and  _165
REMARK   73  A    between atoms: _164  and  _167
REMARK   74  A    between atoms: _167  and  _168
REMARK   75  A    between atoms: _171  and  _173
REMARK   76  A    between atoms: _173  and  _174
REMARK   77  A    between atoms: _173  and  _176
REMARK   78  A    between atoms: _179  and  _181
REMARK   79  A    between atoms: _181  and  _182
REMARK   80  A    between atoms: _181  and  _184
REMARK   81  A    between atoms: _184  and  _185
REMARK   82  A    between atoms: _187  and  _189
REMARK   83  A    between atoms: _189  and  _190
REMARK   84  A    between atoms: _192  and  _194
REMARK   85  A    between atoms: _194  and  _195
REMARK   86  A    between atoms: _194  and  _197
REMARK   87  A    between atoms: _197  and  _198
REMARK   88  A    between atoms: _201  and  _203
REMARK   89  A    between atoms: _203  and  _204
REMARK   90  A    between atoms: _207  and  _209
REMARK   91  A    between atoms: _209  and  _210
REMARK   92  A    between atoms: _209  and  _212
REMARK   93  A    between atoms: _212  and  _213
REMARK   94  A    between atoms: _219  and  _221
REMARK   95  A    between atoms: _221  and  _222
REMARK   96  A    between atoms: _221  and  _224
REMARK   97  A    between atoms: _224  and  _225
REMARK   98  A    between atoms: _228  and  _230
REMARK   99  A    between atoms: _230  and  _231
REMARK  100  A    between atoms: _230  and  _233
REMARK  101  A    between atoms: _233  and  _234
REMARK  102  A    between atoms: _239  and  _241
REMARK  103  A    between atoms: _241  and  _242
REMARK  104  A    between atoms: _244  and  _246
REMARK  105  A    between atoms: _246  and  _247
REMARK  106  A    between atoms: _246  and  _249
REMARK  107  A    between atoms: _249  and  _250
REMARK  108  A    between atoms: _253  and  _255
REMARK  109  A    between atoms: _255  and  _256
REMARK  110  A    between atoms: _255  and  _258
REMARK  111  A    between atoms: _258  and  _259
REMARK  112  A    between atoms: _262  and  _264
REMARK  113  A    between atoms: _264  and  _265
REMARK  114  A    between atoms: _268  and  _270
REMARK  115  A    between atoms: _270  and  _271
REMARK  116  A    between atoms: _270  and  _273
REMARK  117  A    between atoms: _276  and  _278
REMARK  118  A    between atoms: _278  and  _279
REMARK  119  A    between atoms: _278  and  _281
REMARK  120  A    between atoms: _281  and  _282
REMARK  121  A    between atoms: _282  and  _283
REMARK  122  A    between atoms: _286  and  _288
REMARK  123  A    between atoms: _288  and  _289
REMARK  124  A    between atoms: _288  and  _291
REMARK  125  A    between atoms: _291  and  _292
REMARK  126  A    between atoms: _292  and  _293
REMARK  127  A    between atoms: _295  and  _297
REMARK  128  A    between atoms: _297  and  _298
REMARK  129  A    between atoms: _297  and  _300
REMARK  130  A    between atoms: _300  and  _301
REMARK  131  A    between atoms: _301  and  _302
REMARK  132  A    between atoms: _305  and  _307
REMARK  133  A    between atoms: _307  and  _308
REMARK  134  A    between atoms: _311  and  _313
REMARK  135  A    between atoms: _313  and  _314
REMARK  136  A    between atoms: _313  and  _316
REMARK  137  A    between atoms: _316  and  _317
REMARK  138  A    between atoms: _320  and  _322
REMARK  139  A    between atoms: _322  and  _323
REMARK  140  A    between atoms: _322  and  _325
REMARK  141  A    between atoms: _325  and  _326
REMARK  142  A    between atoms: _329  and  _331
REMARK  143  A    between atoms: _331  and  _332
REMARK  144  A    between atoms: _331  and  _334
REMARK  145  A    between atoms: _334  and  _335
REMARK  146  A    between atoms: _335  and  _336
REMARK  147  A    between atoms: _336  and  _337
REMARK  148  A    between atoms: _346  and  _348
REMARK  149  A    between atoms: _348  and  _349
REMARK  150  A    between atoms: _352  and  _354
REMARK  151  A    between atoms: _354  and  _355
REMARK  152  A    between atoms: _354  and  _357
REMARK  153  A    between atoms: _357  and  _358
REMARK  154  A    between atoms: _361  and  _363
REMARK  155  A    between atoms: _363  and  _364
REMARK  156  A    between atoms: _363  and  _366
REMARK  157  A    between atoms: _366  and  _367
REMARK  158  A    between atoms: _369  and  _371
REMARK  159  A    between atoms: _371  and  _372
REMARK  160  A    between atoms: _371  and  _374
REMARK  161  A    between atoms: _374  and  _375
REMARK  162  A    between atoms: _378  and  _380
REMARK  163  A    between atoms: _380  and  _381
REMARK  164  A    between atoms: _380  and  _383
REMARK  165  A    between atoms: _386  and  _388
REMARK  166  A    between atoms: _388  and  _389
REMARK  167  A    between atoms: _392  and  _394
REMARK  168  A    between atoms: _394  and  _395
REMARK  169  A    between atoms: _394  and  _397
REMARK  170  A    between atoms: _397  and  _398
REMARK  171  A    between atoms: _401  and  _403
REMARK  172  A    between atoms: _403  and  _404
REMARK  173  A    between atoms: _403  and  _406
REMARK  174  A    between atoms: _406  and  _407
REMARK  175  A    between atoms: _409  and  _411
REMARK  176  A    between atoms: _411  and  _412
REMARK  177  A    between atoms: _411  and  _414
REMARK  178  A    between atoms: _414  and  _415
REMARK  179  A    between atoms: _420  and  _422
REMARK  180  A    between atoms: _422  and  _423
REMARK  181  A    between atoms: _422  and  _425
REMARK  182  A    between atoms: _425  and  _426
REMARK  183  A    between atoms: _428  and  _430
REMARK  184  A    between atoms: _430  and  _431
REMARK  185  A    between atoms: _430  and  _433
REMARK  186  A    between atoms: _433  and  _434
REMARK  187  A    between atoms: _440  and  _442
REMARK  188  A    between atoms: _442  and  _443
REMARK  189  A    between atoms: _442  and  _445
REMARK  190  A    between atoms: _445  and  _446
REMARK  191  A    between atoms: _449  and  _451
REMARK  192  A    between atoms: _451  and  _452
REMARK  193  A    between atoms: _451  and  _454
REMARK  194  A    between atoms: _454  and  _455
REMARK  195  A    between atoms: _458  and  _460
REMARK  196  A    between atoms: _460  and  _461
REMARK  197  A    between atoms: _464  and  _466
REMARK  198  A    between atoms: _466  and  _467
REMARK  199  A    between atoms: _466  and  _469
REMARK  200  A    between atoms: _469  and  _470
REMARK  201  A    between atoms: _473  and  _475
REMARK  202  A    between atoms: _475  and  _476
REMARK  203  A    between atoms: _475  and  _478
REMARK  204  A    between atoms: _481  and  _483
REMARK  205  A    between atoms: _483  and  _484
REMARK  206  A    between atoms: _487  and  _489
REMARK  207  A    between atoms: _489  and  _490
REMARK  208  A    between atoms: _489  and  _492
REMARK  209  A    between atoms: _492  and  _493
REMARK  210  A    between atoms: _499  and  _501
REMARK  211  A    between atoms: _501  and  _502
REMARK  212  A    between atoms: _501  and  _504
REMARK  213  A    between atoms: _504  and  _505
REMARK  214  A    between atoms: _510  and  _511
REMARK  215  A    between atoms: _513  and  _515
REMARK  216  A    between atoms: _515  and  _516
REMARK  217  A    between atoms: _515  and  _518
REMARK  218  A    between atoms: _518  and  _519
REMARK  219  A    between atoms: _523  and  _524
REMARK                            x       y       z     vdW  Elec       q    Type
REMARK                         _______ _______ _______ _____ _____    ______ ____
ROOT
ATOM      1  C   ASP A   1      48.712  71.003  26.336  0.00  0.00    +0.239 C 
ATOM      2  N   VAL A   2      49.180  69.793  26.610  0.00  0.00    -0.298 N 
ATOM      3  H   VAL A   2      48.973  69.360  27.533  0.00  0.00    +0.150 HD
ATOM      4  O   ASP A   1      48.978  71.623  25.282  0.00  0.00    -0.274 OA
ENDROOT
BRANCH   1   5
ATOM      5  CA  ASP A   1      47.808  71.609  27.411  0.00  0.00    +0.156 C 
BRANCH   5   6
ATOM      6  N   ASP A   1      48.464  72.559  28.311  0.00  0.00    -0.238 NA
ATOM      7  H   ASP A   1      49.186  73.202  27.926  0.00  0.00    +0.142 HD
ENDBRANCH   5   6
BRANCH   5   8
ATOM      8  CB  ASP A   1      46.623  72.286  26.710  0.00  0.00    +0.140 C 
BRANCH   8   9
ATOM      9  CG  ASP A   1      45.740  71.294  25.952  0.00  0.00    +0.367 C 
ATOM     10  OD2 ASP A   1      46.144  70.112  25.793  0.00  0.00    -0.246 OA
ATOM     11  OD1 ASP A   1      44.629  71.716  25.519  0.00  0.00    -0.246 OA
ENDBRANCH   8   9
ENDBRANCH   5   8
ENDBRANCH   1   5
BRANCH   2  12
ATOM     12  CA  VAL A   2      49.973  69.068  25.645  0.00  0.00    +0.137 C 
BRANCH  12  13
ATOM     13  CB  VAL A   2      51.414  68.822  26.126  0.00  0.00    +0.026 C 
ATOM     14  CG2 VAL A   2      52.031  70.114  26.609  0.00  0.00    +0.002 C 
ATOM     15  CG1 VAL A   2      52.240  68.297  24.967  0.00  0.00    +0.002 C 
ENDBRANCH  12  13
BRANCH  12  16
ATOM     16  C   VAL A   2      49.250  67.726  25.429  0.00  0.00    +0.227 C 
ATOM     17  O   VAL A   2      49.870  66.706  25.150  0.00  0.00    -0.286 OA
ENDBRANCH  12  16
ENDBRANCH   2  12
TORSDOF 7
REMARK  Name = ../refined-set-2016/1nc1/1nc1_pocket.pdb
REMARK  219 active torsions:
REMARK  status: ('A' for Active; 'I' for Inactive)
REMARK    1  A    between atoms: _1  and  _3
REMARK    2  A    between atoms: _3  and  _4
REMARK    3  A    between atoms: _6  and  _8
REMARK    4  A    between atoms: _8  and  _9
REMARK    5  A    between atoms: _12  and  _14
REMARK    6  A    between atoms: _14  and  _15
REMARK    7  A    between atoms: _14  and  _17
REMARK    8  A    between atoms: _17  and  _18
REMARK    9  A    between atoms: _18  and  _19
REMARK   10  A    between atoms: _21  and  _23
REMARK   11  A    between atoms: _23  and  _24
REMARK   12  A    between atoms: _23  and  _26
REMARK   13  A    between atoms: _26  and  _27
REMARK   14  A    between atoms: _27  and  _28
REMARK   15  A    between atoms: _31  and  _33
REMARK   16  A    between atoms: _33  and  _34
REMARK   17  A    between atoms: _33  and  _36
REMARK   18  A    between atoms: _36  and  _37
REMARK   19  A    between atoms: _37  and  _38
REMARK   20  A    between atoms: _41  and  _43
REMARK   21  A    between atoms: _43  and  _44
REMARK   22  A    between atoms: _43  and  _46
REMARK   23  A    between atoms: _46  and  _47
REMARK   24  A    between atoms: _49  and  _51
REMARK   25  A    between atoms: _51  and  _52
REMARK   26  A    between atoms: _54  and  _56
REMARK   27  A    between atoms: _56  and  _57
REMARK   28  A    between atoms: _56  and  _59
REMARK   29  A    between atoms: _59  and  _60
REMARK   30  A    between atoms: _63  and  _65
REMARK   31  A    between atoms: _65  and  _66
REMARK   32  A    between atoms: _68  and  _70
REMARK   33  A    between atoms: _70  and  _71
REMARK   34  A    between atoms: _70  and  _73
REMARK   35  A    between atoms: _73  and  _74
REMARK   36  A    between atoms: _74  and  _75
REMARK   37  A    between atoms: _75  and  _76
REMARK   38  A    between atoms: _76  and  _77
REMARK   39  A    between atoms: _81  and  _83
REMARK   40  A    between atoms: _83  and  _84
REMARK   41  A    between atoms: _87  and  _89
REMARK   42  A    between atoms: _89  and  _90
REMARK   43  A    between atoms: _93  and  _95
REMARK   44  A    between atoms: _95  and  _96
REMARK   45  A    between atoms: _95  and  _98
REMARK   46  A    between atoms: _98  and  _99
REMARK   47  A    between atoms: _104  and  _106
REMARK   48  A    between atoms: _106  and  _107
REMARK   49  A    between atoms: _106  and  _109
REMARK   50  A    between atoms: _109  and  _110
REMARK   51  A    between atoms: _113  and  _115
REMARK   52  A    between atoms: _115  and  _116
REMARK   53  A    between atoms: _118  and  _120
REMARK   54  A    between atoms: _120  and  _121
REMARK   55  A    between atoms: _120  and  _123
REMARK   56  A    between atoms: _123  and  _124
REMARK   57  A    between atoms: _126  and  _128
REMARK   58  A    between atoms: _128  and  _129
REMARK   59  A    between atoms: _132  and  _134
REMARK   60  A    between atoms: _134  and  _135
REMARK   61  A    between atoms: _137  and  _139
REMARK   62  A    between atoms: _139  and  _140
REMARK   63  A    between atoms: _142  and  _144
REMARK   64  A    between atoms: _144  and  _145
REMARK   65  A    between atoms: _144  and  _147
REMARK   66  A    between atoms: _147  and  _148
REMARK   67  A    between atoms: _151  and  _153
REMARK   68  A    between atoms: _153  and  _154
REMARK   69  A    between atoms: _153  and  _156
REMARK   70  A    between atoms: _156  and  _157
REMARK   71  A    between atoms: _162  and  _164
REMARK   72  A    between atoms: _164  and  _165
REMARK   73  A    between atoms: _164  and  _167
REMARK   74  A    between atoms: _167  and  _168
REMARK   75  A    between atoms: _171  and  _173
REMARK   76  A    between atoms: _173  and  _174
REMARK   77  A    between atoms: _173  and  _176
REMARK   78  A    between atoms: _179  and  _181
REMARK   79  A    between atoms: _181  and  _182
REMARK   80  A    between atoms: _181  and  _184
REMARK   81  A    between atoms: _184  and  _185
REMARK   82  A    between atoms: _187  and  _189
REMARK   83  A    between atoms: _189  and  _190
REMARK   84  A    between atoms: _192  and  _194
REMARK   85  A    between atoms: _194  and  _195
REMARK   86  A    between atoms: _194  and  _197
REMARK   87  A    between atoms: _197  and  _198
REMARK   88  A    between atoms: _201  and  _203
REMARK   89  A    between atoms: _203  and  _204
REMARK   90  A    between atoms: _207  and  _209
REMARK   91  A    between atoms: _209  and  _210
REMARK   92  A    between atoms: _209  and  _212
REMARK   93  A    between atoms: _212  and  _213
REMARK   94  A    between atoms: _219  and  _221
REMARK   95  A    between atoms: _221  and  _222
REMARK   96  A    between atoms: _221  and  _224
REMARK   97  A    between atoms: _224  and  _225
REMARK   98  A    between atoms: _228  and  _230
REMARK   99  A    between atoms: _230  and  _231
REMARK  100  A    between atoms: _230  and  _233
REMARK  101  A    between atoms: _233  and  _234
REMARK  102  A    between atoms: _239  and  _241
REMARK  103  A    between atoms: _241  and  _242
REMARK  104  A    between atoms: _244  and  _246
REMARK  105  A    between atoms: _246  and  _247
REMARK  106  A    between atoms: _246  and  _249
REMARK  107  A    between atoms: _249  and  _250
REMARK  108  A    between atoms: _253  and  _255
REMARK  109  A    between atoms: _255  and  _256
REMARK  110  A    between atoms: _255  and  _258
REMARK  111  A    between atoms: _258  and  _259
REMARK  112  A    between atoms: _262  and  _264
REMARK  113  A    between atoms: _264  and  _265
REMARK  114  A    between atoms: _268  and  _270
REMARK  115  A    between atoms: _270  and  _271
REMARK  116  A    between atoms: _270  and  _273
REMARK  117  A    between atoms: _276  and  _278
REMARK  118  A    between atoms: _278  and  _279
REMARK  119  A    between atoms: _278  and  _281
REMARK  120  A    between atoms: _281  and  _282
REMARK  121  A    between atoms: _282  and  _283
REMARK  122  A    between atoms: _286  and  _288
REMARK  123  A    between atoms: _288  and  _289
REMARK  124  A    between atoms: _288  and  _291
REMARK  125  A    between atoms: _291  and  _292
REMARK  126  A    between atoms: _292  and  _293
REMARK  127  A    between atoms: _295  and  _297
REMARK  128  A    between atoms: _297  and  _298
REMARK  129  A    between atoms: _297  and  _300
REMARK  130  A    between atoms: _300  and  _301
REMARK  131  A    between atoms: _301  and  _302
REMARK  132  A    between atoms: _305  and  _307
REMARK  133  A    between atoms: _307  and  _308
REMARK  134  A    between atoms: _311  and  _313
REMARK  135  A    between atoms: _313  and  _314
REMARK  136  A    between atoms: _313  and  _316
REMARK  137  A    between atoms: _316  and  _317
REMARK  138  A    between atoms: _320  and  _322
REMARK  139  A    between atoms: _322  and  _323
REMARK  140  A    between atoms: _322  and  _325
REMARK  141  A    between atoms: _325  and  _326
REMARK  142  A    between atoms: _329  and  _331
REMARK  143  A    between atoms: _331  and  _332
REMARK  144  A    between atoms: _331  and  _334
REMARK  145  A    between atoms: _334  and  _335
REMARK  146  A    between atoms: _335  and  _336
REMARK  147  A    between atoms: _336  and  _337
REMARK  148  A    between atoms: _346  and  _348
REMARK  149  A    between atoms: _348  and  _349
REMARK  150  A    between atoms: _352  and  _354
REMARK  151  A    between atoms: _354  and  _355
REMARK  152  A    between atoms: _354  and  _357
REMARK  153  A    between atoms: _357  and  _358
REMARK  154  A    between atoms: _361  and  _363
REMARK  155  A    between atoms: _363  and  _364
REMARK  156  A    between atoms: _363  and  _366
REMARK  157  A    between atoms: _366  and  _367
REMARK  158  A    between atoms: _369  and  _371
REMARK  159  A    between atoms: _371  and  _372
REMARK  160  A    between atoms: _371  and  _374
REMARK  161  A    between atoms: _374  and  _375
REMARK  162  A    between atoms: _378  and  _380
REMARK  163  A    between atoms: _380  and  _381
REMARK  164  A    between atoms: _380  and  _383
REMARK  165  A    between atoms: _386  and  _388
REMARK  166  A    between atoms: _388  and  _389
REMARK  167  A    between atoms: _392  and  _394
REMARK  168  A    between atoms: _394  and  _395
REMARK  169  A    between atoms: _394  and  _397
REMARK  170  A    between atoms: _397  and  _398
REMARK  171  A    between atoms: _401  and  _403
REMARK  172  A    between atoms: _403  and  _404
REMARK  173  A    between atoms: _403  and  _406
REMARK  174  A    between atoms: _406  and  _407
REMARK  175  A    between atoms: _409  and  _411
REMARK  176  A    between atoms: _411  and  _412
REMARK  177  A    between atoms: _411  and  _414
REMARK  178  A    between atoms: _414  and  _415
REMARK  179  A    between atoms: _420  and  _422
REMARK  180  A    between atoms: _422  and  _423
REMARK  181  A    between atoms: _422  and  _425
REMARK  182  A    between atoms: _425  and  _426
REMARK  183  A    between atoms: _428  and  _430
REMARK  184  A    between atoms: _430  and  _431
REMARK  185  A    between atoms: _430  and  _433
REMARK  186  A    between atoms: _433  and  _434
REMARK  187  A    between atoms: _440  and  _442
REMARK  188  A    between atoms: _442  and  _443
REMARK  189  A    between atoms: _442  and  _445
REMARK  190  A    between atoms: _445  and  _446
REMARK  191  A    between atoms: _449  and  _451
REMARK  192  A    between atoms: _451  and  _452
REMARK  193  A    between atoms: _451  and  _454
REMARK  194  A    between atoms: _454  and  _455
REMARK  195  A    between atoms: _458  and  _460
REMARK  196  A    between atoms: _460  and  _461
REMARK  197  A    between atoms: _464  and  _466
REMARK  198  A    between atoms: _466  and  _467
REMARK  199  A    between atoms: _466  and  _469
REMARK  200  A    between atoms: _469  and  _470
REMARK  201  A    between atoms: _473  and  _475
REMARK  202  A    between atoms: _475  and  _476
REMARK  203  A    between atoms: _475  and  _478
REMARK  204  A    between atoms: _481  and  _483
REMARK  205  A    between atoms: _483  and  _484
REMARK  206  A    between atoms: _487  and  _489
REMARK  207  A    between atoms: _489  and  _490
REMARK  208  A    between atoms: _489  and  _492
REMARK  209  A    between atoms: _492  and  _493
REMARK  210  A    between atoms: _499  and  _501
REMARK  211  A    between atoms: _501  and  _502
REMARK  212  A    between atoms: _501  and  _504
REMARK  213  A    between atoms: _504  and  _505
REMARK  214  A    between atoms: _510  and  _511
REMARK  215  A    between atoms: _513  and  _515
REMARK  216  A    between atoms: _515  and  _516
REMARK  217  A    between atoms: _515  and  _518
REMARK  218  A    between atoms: _518  and  _519
REMARK  219  A    between atoms: _523  and  _524
REMARK                            x       y       z     vdW  Elec       q    Type
REMARK                         _______ _______ _______ _____ _____    ______ ____
ROOT
ATOM      1  CA  PHE A   2      50.590  64.146  22.594  0.00  0.00    +0.141 C 
ENDROOT
BRANCH   1   3
ATOM      2  C   ALA A   1      48.744  65.345  21.558  0.00  0.00    +0.238 C 
ATOM      3  N   PHE A   2      49.644  65.256  22.531  0.00  0.00    -0.298 N 
ATOM      4  H   PHE A   2      49.675  65.993  23.264  0.00  0.00    +0.150 HD
ATOM      5  O   ALA A   1      48.639  64.485  20.680  0.00  0.00    -0.274 OA
BRANCH   2   6
ATOM      6  CA  ALA A   1      47.795  66.558  21.605  0.00  0.00    +0.145 C 
ATOM      7  CB  ALA A   1      48.362  67.708  20.787  0.00  0.00    +0.028 C 
BRANCH   6   8
ATOM      8  N   ALA A   1      47.621  66.968  23.001  0.00  0.00    -0.238 NA
ATOM      9  H   ALA A   1      47.829  67.947  23.284  0.00  0.00    +0.142 HD
ENDBRANCH   6   8
ENDBRANCH   2   6
ENDBRANCH   1   3
BRANCH   1  10
ATOM     10  C   PHE A   2      50.286  63.132  23.706  0.00  0.00    +0.227 C 
ATOM     11  O   PHE A   2      51.164  62.362  24.110  0.00  0.00    -0.286 OA
ENDBRANCH   1  10
BRANCH   1  12
ATOM     12  CB  PHE A   2      52.025  64.690  22.741  0.00  0.00    +0.054 C 
BRANCH  12  13
ATOM     13  CG  PHE A   2      52.495  65.441  21.543  0.00  0.00    -0.020 A 
ATOM     14  CD2 PHE A   2      52.451  66.829  21.513  0.00  0.00    -0.004 A 
ATOM     15  CE2 PHE A   2      52.835  67.530  20.364  0.00  0.00    -0.000 A 
ATOM     16  CZ  PHE A   2      53.267  66.837  19.238  0.00  0.00    -0.000 A 
ATOM     17  CE1 PHE A   2      53.319  65.457  19.251  0.00  0.00    -0.000 A 
ATOM     18  CD1 PHE A   2      52.930  64.758  20.409  0.00  0.00    -0.004 A 
ENDBRANCH  12  13
ENDBRANCH   1  12
TORSDOF 6
REMARK  Name = ../refined-set-2016/1nc1/1nc1_pocket.pdb
REMARK  219 active torsions:
REMARK  status: ('A' for Active; 'I' for Inactive)
REMARK    1  A    between atoms: _1  and  _3
REMARK    2  A    between atoms: _3  and  _4
REMARK    3  A    between atoms: _6  and  _8
REMARK    4  A    between atoms: _8  and  _9
REMARK    5  A    between atoms: _12  and  _14
REMARK    6  A    between atoms: _14  and  _15
REMARK    7  A    between atoms: _14  and  _17
REMARK    8  A    between atoms: _17  and  _18
REMARK    9  A    between atoms: _18  and  _19
REMARK   10  A    between atoms: _21  and  _23
REMARK   11  A    between atoms: _23  and  _24
REMARK   12  A    between atoms: _23  and  _26
REMARK   13  A    between atoms: _26  and  _27
REMARK   14  A    between atoms: _27  and  _28
REMARK   15  A    between atoms: _31  and  _33
REMARK   16  A    between atoms: _33  and  _34
REMARK   17  A    between atoms: _33  and  _36
REMARK   18  A    between atoms: _36  and  _37
REMARK   19  A    between atoms: _37  and  _38
REMARK   20  A    between atoms: _41  and  _43
REMARK   21  A    between atoms: _43  and  _44
REMARK   22  A    between atoms: _43  and  _46
REMARK   23  A    between atoms: _46  and  _47
REMARK   24  A    between atoms: _49  and  _51
REMARK   25  A    between atoms: _51  and  _52
REMARK   26  A    between atoms: _54  and  _56
REMARK   27  A    between atoms: _56  and  _57
REMARK   28  A    between atoms: _56  and  _59
REMARK   29  A    between atoms: _59  and  _60
REMARK   30  A    between atoms: _63  and  _65
REMARK   31  A    between atoms: _65  and  _66
REMARK   32  A    between atoms: _68  and  _70
REMARK   33  A    between atoms: _70  and  _71
REMARK   34  A    between atoms: _70  and  _73
REMARK   35  A    between atoms: _73  and  _74
REMARK   36  A    between atoms: _74  and  _75
REMARK   37  A    between atoms: _75  and  _76
REMARK   38  A    between atoms: _76  and  _77
REMARK   39  A    between atoms: _81  and  _83
REMARK   40  A    between atoms: _83  and  _84
REMARK   41  A    between atoms: _87  and  _89
REMARK   42  A    between atoms: _89  and  _90
REMARK   43  A    between atoms: _93  and  _95
REMARK   44  A    between atoms: _95  and  _96
REMARK   45  A    between atoms: _95  and  _98
REMARK   46  A    between atoms: _98  and  _99
REMARK   47  A    between atoms: _104  and  _106
REMARK   48  A    between atoms: _106  and  _107
REMARK   49  A    between atoms: _106  and  _109
REMARK   50  A    between atoms: _109  and  _110
REMARK   51  A    between atoms: _113  and  _115
REMARK   52  A    between atoms: _115  and  _116
REMARK   53  A    between atoms: _118  and  _120
REMARK   54  A    between atoms: _120  and  _121
REMARK   55  A    between atoms: _120  and  _123
REMARK   56  A    between atoms: _123  and  _124
REMARK   57  A    between atoms: _126  and  _128
REMARK   58  A    between atoms: _128  and  _129
REMARK   59  A    between atoms: _132  and  _134
REMARK   60  A    between atoms: _134  and  _135
REMARK   61  A    between atoms: _137  and  _139
REMARK   62  A    between atoms: _139  and  _140
REMARK   63  A    between atoms: _142  and  _144
REMARK   64  A    between atoms: _144  and  _145
REMARK   65  A    between atoms: _144  and  _147
REMARK   66  A    between atoms: _147  and  _148
REMARK   67  A    between atoms: _151  and  _153
REMARK   68  A    between atoms: _153  and  _154
REMARK   69  A    between atoms: _153  and  _156
REMARK   70  A    between atoms: _156  and  _157
REMARK   71  A    between atoms: _162  and  _164
REMARK   72  A    between atoms: _164  and  _165
REMARK   73  A    between atoms: _164  and  _167
REMARK   74  A    between atoms: _167  and  _168
REMARK   75  A    between atoms: _171  and  _173
REMARK   76  A    between atoms: _173  and  _174
REMARK   77  A    between atoms: _173  and  _176
REMARK   78  A    between atoms: _179  and  _181
REMARK   79  A    between atoms: _181  and  _182
REMARK   80  A    between atoms: _181  and  _184
REMARK   81  A    between atoms: _184  and  _185
REMARK   82  A    between atoms: _187  and  _189
REMARK   83  A    between atoms: _189  and  _190
REMARK   84  A    between atoms: _192  and  _194
REMARK   85  A    between atoms: _194  and  _195
REMARK   86  A    between atoms: _194  and  _197
REMARK   87  A    between atoms: _197  and  _198
REMARK   88  A    between atoms: _201  and  _203
REMARK   89  A    between atoms: _203  and  _204
REMARK   90  A    between atoms: _207  and  _209
REMARK   91  A    between atoms: _209  and  _210
REMARK   92  A    between atoms: _209  and  _212
REMARK   93  A    between atoms: _212  and  _213
REMARK   94  A    between atoms: _219  and  _221
REMARK   95  A    between atoms: _221  and  _222
REMARK   96  A    between atoms: _221  and  _224
REMARK   97  A    between atoms: _224  and  _225
REMARK   98  A    between atoms: _228  and  _230
REMARK   99  A    between atoms: _230  and  _231
REMARK  100  A    between atoms: _230  and  _233
REMARK  101  A    between atoms: _233  and  _234
REMARK  102  A    between atoms: _239  and  _241
REMARK  103  A    between atoms: _241  and  _242
REMARK  104  A    between atoms: _244  and  _246
REMARK  105  A    between atoms: _246  and  _247
REMARK  106  A    between atoms: _246  and  _249
REMARK  107  A    between atoms: _249  and  _250
REMARK  108  A    between atoms: _253  and  _255
REMARK  109  A    between atoms: _255  and  _256
REMARK  110  A    between atoms: _255  and  _258
REMARK  111  A    between atoms: _258  and  _259
REMARK  112  A    between atoms: _262  and  _264
REMARK  113  A    between atoms: _264  and  _265
REMARK  114  A    between atoms: _268  and  _270
REMARK  115  A    between atoms: _270  and  _271
REMARK  116  A    between atoms: _270  and  _273
REMARK  117  A    between atoms: _276  and  _278
REMARK  118  A    between atoms: _278  and  _279
REMARK  119  A    between atoms: _278  and  _281
REMARK  120  A    between atoms: _281  and  _282
REMARK  121  A    between atoms: _282  and  _283
REMARK  122  A    between atoms: _286  and  _288
REMARK  123  A    between atoms: _288  and  _289
REMARK  124  A    between atoms: _288  and  _291
REMARK  125  A    between atoms: _291  and  _292
REMARK  126  A    between atoms: _292  and  _293
REMARK  127  A    between atoms: _295  and  _297
REMARK  128  A    between atoms: _297  and  _298
REMARK  129  A    between atoms: _297  and  _300
REMARK  130  A    between atoms: _300  and  _301
REMARK  131  A    between atoms: _301  and  _302
REMARK  132  A    between atoms: _305  and  _307
REMARK  133  A    between atoms: _307  and  _308
REMARK  134  A    between atoms: _311  and  _313
REMARK  135  A    between atoms: _313  and  _314
REMARK  136  A    between atoms: _313  and  _316
REMARK  137  A    between atoms: _316  and  _317
REMARK  138  A    between atoms: _320  and  _322
REMARK  139  A    between atoms: _322  and  _323
REMARK  140  A    between atoms: _322  and  _325
REMARK  141  A    between atoms: _325  and  _326
REMARK  142  A    between atoms: _329  and  _331
REMARK  143  A    between atoms: _331  and  _332
REMARK  144  A    between atoms: _331  and  _334
REMARK  145  A    between atoms: _334  and  _335
REMARK  146  A    between atoms: _335  and  _336
REMARK  147  A    between atoms: _336  and  _337
REMARK  148  A    between atoms: _346  and  _348
REMARK  149  A    between atoms: _348  and  _349
REMARK  150  A    between atoms: _352  and  _354
REMARK  151  A    between atoms: _354  and  _355
REMARK  152  A    between atoms: _354  and  _357
REMARK  153  A    between atoms: _357  and  _358
REMARK  154  A    between atoms: _361  and  _363
REMARK  155  A    between atoms: _363  and  _364
REMARK  156  A    between atoms: _363  and  _366
REMARK  157  A    between atoms: _366  and  _367
REMARK  158  A    between atoms: _369  and  _371
REMARK  159  A    between atoms: _371  and  _372
REMARK  160  A    between atoms: _371  and  _374
REMARK  161  A    between atoms: _374  and  _375
REMARK  162  A    between atoms: _378  and  _380
REMARK  163  A    between atoms: _380  and  _381
REMARK  164  A    between atoms: _380  and  _383
REMARK  165  A    between atoms: _386  and  _388
REMARK  166  A    between atoms: _388  and  _389
REMARK  167  A    between atoms: _392  and  _394
REMARK  168  A    between atoms: _394  and  _395
REMARK  169  A    between atoms: _394  and  _397
REMARK  170  A    between atoms: _397  and  _398
REMARK  171  A    between atoms: _401  and  _403
REMARK  172  A    between atoms: _403  and  _404
REMARK  173  A    between atoms: _403  and  _406
REMARK  174  A    between atoms: _406  and  _407
REMARK  175  A    between atoms: _409  and  _411
REMARK  176  A    between atoms: _411  and  _412
REMARK  177  A    between atoms: _411  and  _414
REMARK  178  A    between atoms: _414  and  _415
REMARK  179  A    between atoms: _420  and  _422
REMARK  180  A    between atoms: _422  and  _423
REMARK  181  A    between atoms: _422  and  _425
REMARK  182  A    between atoms: _425  and  _426
REMARK  183  A    between atoms: _428  and  _430
REMARK  184  A    between atoms: _430  and  _431
REMARK  185  A    between atoms: _430  and  _433
REMARK  186  A    between atoms: _433  and  _434
REMARK  187  A    between atoms: _440  and  _442
REMARK  188  A    between atoms: _442  and  _443
REMARK  189  A    between atoms: _442  and  _445
REMARK  190  A    between atoms: _445  and  _446
REMARK  191  A    between atoms: _449  and  _451
REMARK  192  A    between atoms: _451  and  _452
REMARK  193  A    between atoms: _451  and  _454
REMARK  194  A    between atoms: _454  and  _455
REMARK  195  A    between atoms: _458  and  _460
REMARK  196  A    between atoms: _460  and  _461
REMARK  197  A    between atoms: _464  and  _466
REMARK  198  A    between atoms: _466  and  _467
REMARK  199  A    between atoms: _466  and  _469
REMARK  200  A    between atoms: _469  and  _470
REMARK  201  A    between atoms: _473  and  _475
REMARK  202  A    between atoms: _475  and  _476
REMARK  203  A    between atoms: _475  and  _478
REMARK  204  A    between atoms: _481  and  _483
REMARK  205  A    between atoms: _483  and  _484
REMARK  206  A    between atoms: _487  and  _489
REMARK  207  A    between atoms: _489  and  _490
REMARK  208  A    between atoms: _489  and  _492
REMARK  209  A    between atoms: _492  and  _493
REMARK  210  A    between atoms: _499  and  _501
REMARK  211  A    between atoms: _501  and  _502
REMARK  212  A    between atoms: _501  and  _504
REMARK  213  A    between atoms: _504  and  _505
REMARK  214  A    between atoms: _510  and  _511
REMARK  215  A    between atoms: _513  and  _515
REMARK  216  A    between atoms: _515  and  _516
REMARK  217  A    between atoms: _515  and  _518
REMARK  218  A    between atoms: _518  and  _519
REMARK  219  A    between atoms: _523  and  _524
REMARK                            x       y       z     vdW  Elec       q    Type
REMARK                         _______ _______ _______ _____ _____    ______ ____
ROOT
ATOM      1  CG  TYR A   1      52.057  64.763  28.023  0.00  0.00    -0.020 A 
ATOM      2  CD2 TYR A   1      53.017  64.160  28.838  0.00  0.00    -0.001 A 
ATOM      3  CE2 TYR A   1      54.253  63.739  28.320  0.00  0.00    +0.036 A 
ATOM      4  CZ  TYR A   1      54.516  63.921  26.977  0.00  0.00    +0.134 A 
ATOM      5  CE1 TYR A   1      53.580  64.522  26.144  0.00  0.00    +0.036 A 
ATOM      6  CD1 TYR A   1      52.350  64.943  26.677  0.00  0.00    -0.001 A 
ENDROOT
BRANCH   4   7
ATOM      7  OH  TYR A   1      55.697  63.464  26.456  0.00  0.00    -0.506 OA
ATOM      8  HH  TYR A   1      56.244  63.067  27.180  0.00  0.00    +0.292 HD
ENDBRANCH   4   7
BRANCH   1   9
ATOM      9  CB  TYR A   1      50.694  65.112  28.561  0.00  0.00    +0.051 C 
BRANCH   9  10
ATOM     10  CA  TYR A   1      49.702  63.943  28.432  0.00  0.00    +0.137 C 
BRANCH  10  11
ATOM     11  N   TYR A   1      49.426  63.633  27.035  0.00  0.00    -0.239 NA
ATOM     12  H   TYR A   1      49.543  64.369  26.309  0.00  0.00    +0.142 HD
ENDBRANCH  10  11
BRANCH  10  13
ATOM     13  C   TYR A   1      48.366  64.333  29.001  0.00  0.00    +0.224 C 
ATOM     14  O   TYR A   1      47.472  64.712  28.262  0.00  0.00    -0.287 OA
ENDBRANCH  10  13
ENDBRANCH   9  10
ENDBRANCH   1   9
TORSDOF 5
REMARK  Name = ../refined-set-2016/1nc1/1nc1_pocket.pdb
REMARK  219 active torsions:
REMARK  status: ('A' for Active; 'I' for Inactive)
REMARK    1  A    between atoms: _1  and  _3
REMARK    2  A    between atoms: _3  and  _4
REMARK    3  A    between atoms: _6  and  _8
REMARK    4  A    between atoms: _8  and  _9
REMARK    5  A    between atoms: _12  and  _14
REMARK    6  A    between atoms: _14  and  _15
REMARK    7  A    between atoms: _14  and  _17
REMARK    8  A    between atoms: _17  and  _18
REMARK    9  A    between atoms: _18  and  _19
REMARK   10  A    between atoms: _21  and  _23
REMARK   11  A    between atoms: _23  and  _24
REMARK   12  A    between atoms: _23  and  _26
REMARK   13  A    between atoms: _26  and  _27
REMARK   14  A    between atoms: _27  and  _28
REMARK   15  A    between atoms: _31  and  _33
REMARK   16  A    between atoms: _33  and  _34
REMARK   17  A    between atoms: _33  and  _36
REMARK   18  A    between atoms: _36  and  _37
REMARK   19  A    between atoms: _37  and  _38
REMARK   20  A    between atoms: _41  and  _43
REMARK   21  A    between atoms: _43  and  _44
REMARK   22  A    between atoms: _43  and  _46
REMARK   23  A    between atoms: _46  and  _47
REMARK   24  A    between atoms: _49  and  _51
REMARK   25  A    between atoms: _51  and  _52
REMARK   26  A    between atoms: _54  and  _56
REMARK   27  A    between atoms: _56  and  _57
REMARK   28  A    between atoms: _56  and  _59
REMARK   29  A    between atoms: _59  and  _60
REMARK   30  A    between atoms: _63  and  _65
REMARK   31  A    between atoms: _65  and  _66
REMARK   32  A    between atoms: _68  and  _70
REMARK   33  A    between atoms: _70  and  _71
REMARK   34  A    between atoms: _70  and  _73
REMARK   35  A    between atoms: _73  and  _74
REMARK   36  A    between atoms: _74  and  _75
REMARK   37  A    between atoms: _75  and  _76
REMARK   38  A    between atoms: _76  and  _77
REMARK   39  A    between atoms: _81  and  _83
REMARK   40  A    between atoms: _83  and  _84
REMARK   41  A    between atoms: _87  and  _89
REMARK   42  A    between atoms: _89  and  _90
REMARK   43  A    between atoms: _93  and  _95
REMARK   44  A    between atoms: _95  and  _96
REMARK   45  A    between atoms: _95  and  _98
REMARK   46  A    between atoms: _98  and  _99
REMARK   47  A    between atoms: _104  and  _106
REMARK   48  A    between atoms: _106  and  _107
REMARK   49  A    between atoms: _106  and  _109
REMARK   50  A    between atoms: _109  and  _110
REMARK   51  A    between atoms: _113  and  _115
REMARK   52  A    between atoms: _115  and  _116
REMARK   53  A    between atoms: _118  and  _120
REMARK   54  A    between atoms: _120  and  _121
REMARK   55  A    between atoms: _120  and  _123
REMARK   56  A    between atoms: _123  and  _124
REMARK   57  A    between atoms: _126  and  _128
REMARK   58  A    between atoms: _128  and  _129
REMARK   59  A    between atoms: _132  and  _134
REMARK   60  A    between atoms: _134  and  _135
REMARK   61  A    between atoms: _137  and  _139
REMARK   62  A    between atoms: _139  and  _140
REMARK   63  A    between atoms: _142  and  _144
REMARK   64  A    between atoms: _144  and  _145
REMARK   65  A    between atoms: _144  and  _147
REMARK   66  A    between atoms: _147  and  _148
REMARK   67  A    between atoms: _151  and  _153
REMARK   68  A    between atoms: _153  and  _154
REMARK   69  A    between atoms: _153  and  _156
REMARK   70  A    between atoms: _156  and  _157
REMARK   71  A    between atoms: _162  and  _164
REMARK   72  A    between atoms: _164  and  _165
REMARK   73  A    between atoms: _164  and  _167
REMARK   74  A    between atoms: _167  and  _168
REMARK   75  A    between atoms: _171  and  _173
REMARK   76  A    between atoms: _173  and  _174
REMARK   77  A    between atoms: _173  and  _176
REMARK   78  A    between atoms: _179  and  _181
REMARK   79  A    between atoms: _181  and  _182
REMARK   80  A    between atoms: _181  and  _184
REMARK   81  A    between atoms: _184  and  _185
REMARK   82  A    between atoms: _187  and  _189
REMARK   83  A    between atoms: _189  and  _190
REMARK   84  A    between atoms: _192  and  _194
REMARK   85  A    between atoms: _194  and  _195
REMARK   86  A    between atoms: _194  and  _197
REMARK   87  A    between atoms: _197  and  _198
REMARK   88  A    between atoms: _201  and  _203
REMARK   89  A    between atoms: _203  and  _204
REMARK   90  A    between atoms: _207  and  _209
REMARK   91  A    between atoms: _209  and  _210
REMARK   92  A    between atoms: _209  and  _212
REMARK   93  A    between atoms: _212  and  _213
REMARK   94  A    between atoms: _219  and  _221
REMARK   95  A    between atoms: _221  and  _222
REMARK   96  A    between atoms: _221  and  _224
REMARK   97  A    between atoms: _224  and  _225
REMARK   98  A    between atoms: _228  and  _230
REMARK   99  A    between atoms: _230  and  _231
REMARK  100  A    between atoms: _230  and  _233
REMARK  101  A    between atoms: _233  and  _234
REMARK  102  A    between atoms: _239  and  _241
REMARK  103  A    between atoms: _241  and  _242
REMARK  104  A    between atoms: _244  and  _246
REMARK  105  A    between atoms: _246  and  _247
REMARK  106  A    between atoms: _246  and  _249
REMARK  107  A    between atoms: _249  and  _250
REMARK  108  A    between atoms: _253  and  _255
REMARK  109  A    between atoms: _255  and  _256
REMARK  110  A    between atoms: _255  and  _258
REMARK  111  A    between atoms: _258  and  _259
REMARK  112  A    between atoms: _262  and  _264
REMARK  113  A    between atoms: _264  and  _265
REMARK  114  A    between atoms: _268  and  _270
REMARK  115  A    between atoms: _270  and  _271
REMARK  116  A    between atoms: _270  and  _273
REMARK  117  A    between atoms: _276  and  _278
REMARK  118  A    between atoms: _278  and  _279
REMARK  119  A    between atoms: _278  and  _281
REMARK  120  A    between atoms: _281  and  _282
REMARK  121  A    between atoms: _282  and  _283
REMARK  122  A    between atoms: _286  and  _288
REMARK  123  A    between atoms: _288  and  _289
REMARK  124  A    between atoms: _288  and  _291
REMARK  125  A    between atoms: _291  and  _292
REMARK  126  A    between atoms: _292  and  _293
REMARK  127  A    between atoms: _295  and  _297
REMARK  128  A    between atoms: _297  and  _298
REMARK  129  A    between atoms: _297  and  _300
REMARK  130  A    between atoms: _300  and  _301
REMARK  131  A    between atoms: _301  and  _302
REMARK  132  A    between atoms: _305  and  _307
REMARK  133  A    between atoms: _307  and  _308
REMARK  134  A    between atoms: _311  and  _313
REMARK  135  A    between atoms: _313  and  _314
REMARK  136  A    between atoms: _313  and  _316
REMARK  137  A    between atoms: _316  and  _317
REMARK  138  A    between atoms: _320  and  _322
REMARK  139  A    between atoms: _322  and  _323
REMARK  140  A    between atoms: _322  and  _325
REMARK  141  A    between atoms: _325  and  _326
REMARK  142  A    between atoms: _329  and  _331
REMARK  143  A    between atoms: _331  and  _332
REMARK  144  A    between atoms: _331  and  _334
REMARK  145  A    between atoms: _334  and  _335
REMARK  146  A    between atoms: _335  and  _336
REMARK  147  A    between atoms: _336  and  _337
REMARK  148  A    between atoms: _346  and  _348
REMARK  149  A    between atoms: _348  and  _349
REMARK  150  A    between atoms: _352  and  _354
REMARK  151  A    between atoms: _354  and  _355
REMARK  152  A    between atoms: _354  and  _357
REMARK  153  A    between atoms: _357  and  _358
REMARK  154  A    between atoms: _361  and  _363
REMARK  155  A    between atoms: _363  and  _364
REMARK  156  A    between atoms: _363  and  _366
REMARK  157  A    between atoms: _366  and  _367
REMARK  158  A    between atoms: _369  and  _371
REMARK  159  A    between atoms: _371  and  _372
REMARK  160  A    between atoms: _371  and  _374
REMARK  161  A    between atoms: _374  and  _375
REMARK  162  A    between atoms: _378  and  _380
REMARK  163  A    between atoms: _380  and  _381
REMARK  164  A    between atoms: _380  and  _383
REMARK  165  A    between atoms: _386  and  _388
REMARK  166  A    between atoms: _388  and  _389
REMARK  167  A    between atoms: _392  and  _394
REMARK  168  A    between atoms: _394  and  _395
REMARK  169  A    between atoms: _394  and  _397
REMARK  170  A    between atoms: _397  and  _398
REMARK  171  A    between atoms: _401  and  _403
REMARK  172  A    between atoms: _403  and  _404
REMARK  173  A    between atoms: _403  and  _406
REMARK  174  A    between atoms: _406  and  _407
REMARK  175  A    between atoms: _409  and  _411
REMARK  176  A    between atoms: _411  and  _412
REMARK  177  A    between atoms: _411  and  _414
REMARK  178  A    between atoms: _414  and  _415
REMARK  179  A    between atoms: _420  and  _422
REMARK  180  A    between atoms: _422  and  _423
REMARK  181  A    between atoms: _422  and  _425
REMARK  182  A    between atoms: _425  and  _426
REMARK  183  A    between atoms: _428  and  _430
REMARK  184  A    between atoms: _430  and  _431
REMARK  185  A    between atoms: _430  and  _433
REMARK  186  A    between atoms: _433  and  _434
REMARK  187  A    between atoms: _440  and  _442
REMARK  188  A    between atoms: _442  and  _443
REMARK  189  A    between atoms: _442  and  _445
REMARK  190  A    between atoms: _445  and  _446
REMARK  191  A    between atoms: _449  and  _451
REMARK  192  A    between atoms: _451  and  _452
REMARK  193  A    between atoms: _451  and  _454
REMARK  194  A    between atoms: _454  and  _455
REMARK  195  A    between atoms: _458  and  _460
REMARK  196  A    between atoms: _460  and  _461
REMARK  197  A    between atoms: _464  and  _466
REMARK  198  A    between atoms: _466  and  _467
REMARK  199  A    between atoms: _466  and  _469
REMARK  200  A    between atoms: _469  and  _470
REMARK  201  A    between atoms: _473  and  _475
REMARK  202  A    between atoms: _475  and  _476
REMARK  203  A    between atoms: _475  and  _478
REMARK  204  A    between atoms: _481  and  _483
REMARK  205  A    between atoms: _483  and  _484
REMARK  206  A    between atoms: _487  and  _489
REMARK  207  A    between atoms: _489  and  _490
REMARK  208  A    between atoms: _489  and  _492
REMARK  209  A    between atoms: _492  and  _493
REMARK  210  A    between atoms: _499  and  _501
REMARK  211  A    between atoms: _501  and  _502
REMARK  212  A    between atoms: _501  and  _504
REMARK  213  A    between atoms: _504  and  _505
REMARK  214  A    between atoms: _510  and  _511
REMARK  215  A    between atoms: _513  and  _515
REMARK  216  A    between atoms: _515  and  _516
REMARK  217  A    between atoms: _515  and  _518
REMARK  218  A    between atoms: _518  and  _519
REMARK  219  A    between atoms: _523  and  _524
REMARK                            x       y       z     vdW  Elec       q    Type
REMARK                         _______ _______ _______ _____ _____    ______ ____
ROOT
ATOM      1  C   LEU A   1      54.711  68.011  31.053  0.00  0.00    +0.241 C 
ATOM      2  O   LEU A   1      54.977  67.302  32.006  0.00  0.00    -0.273 OA
ATOM      3  N   PRO A   2      55.226  67.767  29.837  0.00  0.00    -0.273 N 
ATOM      4  CA  PRO A   2      56.086  66.589  29.660  0.00  0.00    +0.140 C 
ATOM      5  CB  PRO A   2      56.520  66.689  28.191  0.00  0.00    +0.030 C 
ATOM      6  CG  PRO A   2      55.357  67.387  27.543  0.00  0.00    +0.024 C 
ATOM      7  CD  PRO A   2      55.041  68.480  28.563  0.00  0.00    +0.094 C 
ENDROOT
BRANCH   4   8
ATOM      8  C   PRO A   2      57.280  66.634  30.611  0.00  0.00    +0.227 C 
ATOM      9  O   PRO A   2      57.887  67.695  30.781  0.00  0.00    -0.286 OA
ENDBRANCH   4   8
BRANCH   1  10
ATOM     10  CA  LEU A   1      53.805  69.241  31.234  0.00  0.00    +0.145 C 
BRANCH  10  11
ATOM     11  N   LEU A   1      52.730  68.866  32.160  0.00  0.00    -0.238 NA
ATOM     12  H   LEU A   1      52.937  68.803  33.177  0.00  0.00    +0.142 HD
ENDBRANCH  10  11
BRANCH  10  13
ATOM     13  CB  LEU A   1      54.641  70.399  31.794  0.00  0.00    +0.026 C 
BRANCH  13  14
ATOM     14  CG  LEU A   1      54.085  71.787  31.451  0.00  0.00    +0.002 C 
ATOM     15  CD2 LEU A   1      52.833  72.017  32.226  0.00  0.00    +0.000 C 
ATOM     16  CD1 LEU A   1      53.774  71.865  29.925  0.00  0.00    +0.000 C 
ENDBRANCH  13  14
ENDBRANCH  10  13
ENDBRANCH   1  10
TORSDOF 5
REMARK  Name = ../refined-set-2016/1nc1/1nc1_pocket.pdb
REMARK  219 active torsions:
REMARK  status: ('A' for Active; 'I' for Inactive)
REMARK    1  A    between atoms: _1  and  _3
REMARK    2  A    between atoms: _3  and  _4
REMARK    3  A    between atoms: _6  and  _8
REMARK    4  A    between atoms: _8  and  _9
REMARK    5  A    between atoms: _12  and  _14
REMARK    6  A    between atoms: _14  and  _15
REMARK    7  A    between atoms: _14  and  _17
REMARK    8  A    between atoms: _17  and  _18
REMARK    9  A    between atoms: _18  and  _19
REMARK   10  A    between atoms: _21  and  _23
REMARK   11  A    between atoms: _23  and  _24
REMARK   12  A    between atoms: _23  and  _26
REMARK   13  A    between atoms: _26  and  _27
REMARK   14  A    between atoms: _27  and  _28
REMARK   15  A    between atoms: _31  and  _33
REMARK   16  A    between atoms: _33  and  _34
REMARK   17  A    between atoms: _33  and  _36
REMARK   18  A    between atoms: _36  and  _37
REMARK   19  A    between atoms: _37  and  _38
REMARK   20  A    between atoms: _41  and  _43
REMARK   21  A    between atoms: _43  and  _44
REMARK   22  A    between atoms: _43  and  _46
REMARK   23  A    between atoms: _46  and  _47
REMARK   24  A    between atoms: _49  and  _51
REMARK   25  A    between atoms: _51  and  _52
REMARK   26  A    between atoms: _54  and  _56
REMARK   27  A    between atoms: _56  and  _57
REMARK   28  A    between atoms: _56  and  _59
REMARK   29  A    between atoms: _59  and  _60
REMARK   30  A    between atoms: _63  and  _65
REMARK   31  A    between atoms: _65  and  _66
REMARK   32  A    between atoms: _68  and  _70
REMARK   33  A    between atoms: _70  and  _71
REMARK   34  A    between atoms: _70  and  _73
REMARK   35  A    between atoms: _73  and  _74
REMARK   36  A    between atoms: _74  and  _75
REMARK   37  A    between atoms: _75  and  _76
REMARK   38  A    between atoms: _76  and  _77
REMARK   39  A    between atoms: _81  and  _83
REMARK   40  A    between atoms: _83  and  _84
REMARK   41  A    between atoms: _87  and  _89
REMARK   42  A    between atoms: _89  and  _90
REMARK   43  A    between atoms: _93  and  _95
REMARK   44  A    between atoms: _95  and  _96
REMARK   45  A    between atoms: _95  and  _98
REMARK   46  A    between atoms: _98  and  _99
REMARK   47  A    between atoms: _104  and  _106
REMARK   48  A    between atoms: _106  and  _107
REMARK   49  A    between atoms: _106  and  _109
REMARK   50  A    between atoms: _109  and  _110
REMARK   51  A    between atoms: _113  and  _115
REMARK   52  A    between atoms: _115  and  _116
REMARK   53  A    between atoms: _118  and  _120
REMARK   54  A    between atoms: _120  and  _121
REMARK   55  A    between atoms: _120  and  _123
REMARK   56  A    between atoms: _123  and  _124
REMARK   57  A    between atoms: _126  and  _128
REMARK   58  A    between atoms: _128  and  _129
REMARK   59  A    between atoms: _132  and  _134
REMARK   60  A    between atoms: _134  and  _135
REMARK   61  A    between atoms: _137  and  _139
REMARK   62  A    between atoms: _139  and  _140
REMARK   63  A    between atoms: _142  and  _144
REMARK   64  A    between atoms: _144  and  _145
REMARK   65  A    between atoms: _144  and  _147
REMARK   66  A    between atoms: _147  and  _148
REMARK   67  A    between atoms: _151  and  _153
REMARK   68  A    between atoms: _153  and  _154
REMARK   69  A    between atoms: _153  and  _156
REMARK   70  A    between atoms: _156  and  _157
REMARK   71  A    between atoms: _162  and  _164
REMARK   72  A    between atoms: _164  and  _165
REMARK   73  A    between atoms: _164  and  _167
REMARK   74  A    between atoms: _167  and  _168
REMARK   75  A    between atoms: _171  and  _173
REMARK   76  A    between atoms: _173  and  _174
REMARK   77  A    between atoms: _173  and  _176
REMARK   78  A    between atoms: _179  and  _181
REMARK   79  A    between atoms: _181  and  _182
REMARK   80  A    between atoms: _181  and  _184
REMARK   81  A    between atoms: _184  and  _185
REMARK   82  A    between atoms: _187  and  _189
REMARK   83  A    between atoms: _189  and  _190
REMARK   84  A    between atoms: _192  and  _194
REMARK   85  A    between atoms: _194  and  _195
REMARK   86  A    between atoms: _194  and  _197
REMARK   87  A    between atoms: _197  and  _198
REMARK   88  A    between atoms: _201  and  _203
REMARK   89  A    between atoms: _203  and  _204
REMARK   90  A    between atoms: _207  and  _209
REMARK   91  A    between atoms: _209  and  _210
REMARK   92  A    between atoms: _209  and  _212
REMARK   93  A    between atoms: _212  and  _213
REMARK   94  A    between atoms: _219  and  _221
REMARK   95  A    between atoms: _221  and  _222
REMARK   96  A    between atoms: _221  and  _224
REMARK   97  A    between atoms: _224  and  _225
REMARK   98  A    between atoms: _228  and  _230
REMARK   99  A    between atoms: _230  and  _231
REMARK  100  A    between atoms: _230  and  _233
REMARK  101  A    between atoms: _233  and  _234
REMARK  102  A    between atoms: _239  and  _241
REMARK  103  A    between atoms: _241  and  _242
REMARK  104  A    between atoms: _244  and  _246
REMARK  105  A    between atoms: _246  and  _247
REMARK  106  A    between atoms: _246  and  _249
REMARK  107  A    between atoms: _249  and  _250
REMARK  108  A    between atoms: _253  and  _255
REMARK  109  A    between atoms: _255  and  _256
REMARK  110  A    between atoms: _255  and  _258
REMARK  111  A    between atoms: _258  and  _259
REMARK  112  A    between atoms: _262  and  _264
REMARK  113  A    between atoms: _264  and  _265
REMARK  114  A    between atoms: _268  and  _270
REMARK  115  A    between atoms: _270  and  _271
REMARK  116  A    between atoms: _270  and  _273
REMARK  117  A    between atoms: _276  and  _278
REMARK  118  A    between atoms: _278  and  _279
REMARK  119  A    between atoms: _278  and  _281
REMARK  120  A    between atoms: _281  and  _282
REMARK  121  A    between atoms: _282  and  _283
REMARK  122  A    between atoms: _286  and  _288
REMARK  123  A    between atoms: _288  and  _289
REMARK  124  A    between atoms: _288  and  _291
REMARK  125  A    between atoms: _291  and  _292
REMARK  126  A    between atoms: _292  and  _293
REMARK  127  A    between atoms: _295  and  _297
REMARK  128  A    between atoms: _297  and  _298
REMARK  129  A    between atoms: _297  and  _300
REMARK  130  A    between atoms: _300  and  _301
REMARK  131  A    between atoms: _301  and  _302
REMARK  132  A    between atoms: _305  and  _307
REMARK  133  A    between atoms: _307  and  _308
REMARK  134  A    between atoms: _311  and  _313
REMARK  135  A    between atoms: _313  and  _314
REMARK  136  A    between atoms: _313  and  _316
REMARK  137  A    between atoms: _316  and  _317
REMARK  138  A    between atoms: _320  and  _322
REMARK  139  A    between atoms: _322  and  _323
REMARK  140  A    between atoms: _322  and  _325
REMARK  141  A    between atoms: _325  and  _326
REMARK  142  A    between atoms: _329  and  _331
REMARK  143  A    between atoms: _331  and  _332
REMARK  144  A    between atoms: _331  and  _334
REMARK  145  A    between atoms: _334  and  _335
REMARK  146  A    between atoms: _335  and  _336
REMARK  147  A    between atoms: _336  and  _337
REMARK  148  A    between atoms: _346  and  _348
REMARK  149  A    between atoms: _348  and  _349
REMARK  150  A    between atoms: _352  and  _354
REMARK  151  A    between atoms: _354  and  _355
REMARK  152  A    between atoms: _354  and  _357
REMARK  153  A    between atoms: _357  and  _358
REMARK  154  A    between atoms: _361  and  _363
REMARK  155  A    between atoms: _363  and  _364
REMARK  156  A    between atoms: _363  and  _366
REMARK  157  A    between atoms: _366  and  _367
REMARK  158  A    between atoms: _369  and  _371
REMARK  159  A    between atoms: _371  and  _372
REMARK  160  A    between atoms: _371  and  _374
REMARK  161  A    between atoms: _374  and  _375
REMARK  162  A    between atoms: _378  and  _380
REMARK  163  A    between atoms: _380  and  _381
REMARK  164  A    between atoms: _380  and  _383
REMARK  165  A    between atoms: _386  and  _388
REMARK  166  A    between atoms: _388  and  _389
REMARK  167  A    between atoms: _392  and  _394
REMARK  168  A    between atoms: _394  and  _395
REMARK  169  A    between atoms: _394  and  _397
REMARK  170  A    between atoms: _397  and  _398
REMARK  171  A    between atoms: _401  and  _403
REMARK  172  A    between atoms: _403  and  _404
REMARK  173  A    between atoms: _403  and  _406
REMARK  174  A    between atoms: _406  and  _407
REMARK  175  A    between atoms: _409  and  _411
REMARK  176  A    between atoms: _411  and  _412
REMARK  177  A    between atoms: _411  and  _414
REMARK  178  A    between atoms: _414  and  _415
REMARK  179  A    between atoms: _420  and  _422
REMARK  180  A    between atoms: _422  and  _423
REMARK  181  A    between atoms: _422  and  _425
REMARK  182  A    between atoms: _425  and  _426
REMARK  183  A    between atoms: _428  and  _430
REMARK  184  A    between atoms: _430  and  _431
REMARK  185  A    between atoms: _430  and  _433
REMARK  186  A    between atoms: _433  and  _434
REMARK  187  A    between atoms: _440  and  _442
REMARK  188  A    between atoms: _442  and  _443
REMARK  189  A    between atoms: _442  and  _445
REMARK  190  A    between atoms: _445  and  _446
REMARK  191  A    between atoms: _449  and  _451
REMARK  192  A    between atoms: _451  and  _452
REMARK  193  A    between atoms: _451  and  _454
REMARK  194  A    between atoms: _454  and  _455
REMARK  195  A    between atoms: _458  and  _460
REMARK  196  A    between atoms: _460  and  _461
REMARK  197  A    between atoms: _464  and  _466
REMARK  198  A    between atoms: _466  and  _467
REMARK  199  A    between atoms: _466  and  _469
REMARK  200  A    between atoms: _469  and  _470
REMARK  201  A    between atoms: _473  and  _475
REMARK  202  A    between atoms: _475  and  _476
REMARK  203  A    between atoms: _475  and  _478
REMARK  204  A    between atoms: _481  and  _483
REMARK  205  A    between atoms: _483  and  _484
REMARK  206  A    between atoms: _487  and  _489
REMARK  207  A    between atoms: _489  and  _490
REMARK  208  A    between atoms: _489  and  _492
REMARK  209  A    between atoms: _492  and  _493
REMARK  210  A    between atoms: _499  and  _501
REMARK  211  A    between atoms: _501  and  _502
REMARK  212  A    between atoms: _501  and  _504
REMARK  213  A    between atoms: _504  and  _505
REMARK  214  A    between atoms: _510  and  _511
REMARK  215  A    between atoms: _513  and  _515
REMARK  216  A    between atoms: _515  and  _516
REMARK  217  A    between atoms: _515  and  _518
REMARK  218  A    between atoms: _518  and  _519
REMARK  219  A    between atoms: _523  and  _524
REMARK                            x       y       z     vdW  Elec       q    Type
REMARK                         _______ _______ _______ _____ _____    ______ ____
ROOT
ATOM      1  O   HOH     1      61.286  73.845  21.775  0.00  0.00    +0.000 OA
ENDROOT
TORSDOF 0
REMARK  Name = ../refined-set-2016/1nc1/1nc1_pocket.pdb
REMARK  219 active torsions:
REMARK  status: ('A' for Active; 'I' for Inactive)
REMARK    1  A    between atoms: _1  and  _3
REMARK    2  A    between atoms: _3  and  _4
REMARK    3  A    between atoms: _6  and  _8
REMARK    4  A    between atoms: _8  and  _9
REMARK    5  A    between atoms: _12  and  _14
REMARK    6  A    between atoms: _14  and  _15
REMARK    7  A    between atoms: _14  and  _17
REMARK    8  A    between atoms: _17  and  _18
REMARK    9  A    between atoms: _18  and  _19
REMARK   10  A    between atoms: _21  and  _23
REMARK   11  A    between atoms: _23  and  _24
REMARK   12  A    between atoms: _23  and  _26
REMARK   13  A    between atoms: _26  and  _27
REMARK   14  A    between atoms: _27  and  _28
REMARK   15  A    between atoms: _31  and  _33
REMARK   16  A    between atoms: _33  and  _34
REMARK   17  A    between atoms: _33  and  _36
REMARK   18  A    between atoms: _36  and  _37
REMARK   19  A    between atoms: _37  and  _38
REMARK   20  A    between atoms: _41  and  _43
REMARK   21  A    between atoms: _43  and  _44
REMARK   22  A    between atoms: _43  and  _46
REMARK   23  A    between atoms: _46  and  _47
REMARK   24  A    between atoms: _49  and  _51
REMARK   25  A    between atoms: _51  and  _52
REMARK   26  A    between atoms: _54  and  _56
REMARK   27  A    between atoms: _56  and  _57
REMARK   28  A    between atoms: _56  and  _59
REMARK   29  A    between atoms: _59  and  _60
REMARK   30  A    between atoms: _63  and  _65
REMARK   31  A    between atoms: _65  and  _66
REMARK   32  A    between atoms: _68  and  _70
REMARK   33  A    between atoms: _70  and  _71
REMARK   34  A    between atoms: _70  and  _73
REMARK   35  A    between atoms: _73  and  _74
REMARK   36  A    between atoms: _74  and  _75
REMARK   37  A    between atoms: _75  and  _76
REMARK   38  A    between atoms: _76  and  _77
REMARK   39  A    between atoms: _81  and  _83
REMARK   40  A    between atoms: _83  and  _84
REMARK   41  A    between atoms: _87  and  _89
REMARK   42  A    between atoms: _89  and  _90
REMARK   43  A    between atoms: _93  and  _95
REMARK   44  A    between atoms: _95  and  _96
REMARK   45  A    between atoms: _95  and  _98
REMARK   46  A    between atoms: _98  and  _99
REMARK   47  A    between atoms: _104  and  _106
REMARK   48  A    between atoms: _106  and  _107
REMARK   49  A    between atoms: _106  and  _109
REMARK   50  A    between atoms: _109  and  _110
REMARK   51  A    between atoms: _113  and  _115
REMARK   52  A    between atoms: _115  and  _116
REMARK   53  A    between atoms: _118  and  _120
REMARK   54  A    between atoms: _120  and  _121
REMARK   55  A    between atoms: _120  and  _123
REMARK   56  A    between atoms: _123  and  _124
REMARK   57  A    between atoms: _126  and  _128
REMARK   58  A    between atoms: _128  and  _129
REMARK   59  A    between atoms: _132  and  _134
REMARK   60  A    between atoms: _134  and  _135
REMARK   61  A    between atoms: _137  and  _139
REMARK   62  A    between atoms: _139  and  _140
REMARK   63  A    between atoms: _142  and  _144
REMARK   64  A    between atoms: _144  and  _145
REMARK   65  A    between atoms: _144  and  _147
REMARK   66  A    between atoms: _147  and  _148
REMARK   67  A    between atoms: _151  and  _153
REMARK   68  A    between atoms: _153  and  _154
REMARK   69  A    between atoms: _153  and  _156
REMARK   70  A    between atoms: _156  and  _157
REMARK   71  A    between atoms: _162  and  _164
REMARK   72  A    between atoms: _164  and  _165
REMARK   73  A    between atoms: _164  and  _167
REMARK   74  A    between atoms: _167  and  _168
REMARK   75  A    between atoms: _171  and  _173
REMARK   76  A    between atoms: _173  and  _174
REMARK   77  A    between atoms: _173  and  _176
REMARK   78  A    between atoms: _179  and  _181
REMARK   79  A    between atoms: _181  and  _182
REMARK   80  A    between atoms: _181  and  _184
REMARK   81  A    between atoms: _184  and  _185
REMARK   82  A    between atoms: _187  and  _189
REMARK   83  A    between atoms: _189  and  _190
REMARK   84  A    between atoms: _192  and  _194
REMARK   85  A    between atoms: _194  and  _195
REMARK   86  A    between atoms: _194  and  _197
REMARK   87  A    between atoms: _197  and  _198
REMARK   88  A    between atoms: _201  and  _203
REMARK   89  A    between atoms: _203  and  _204
REMARK   90  A    between atoms: _207  and  _209
REMARK   91  A    between atoms: _209  and  _210
REMARK   92  A    between atoms: _209  and  _212
REMARK   93  A    between atoms: _212  and  _213
REMARK   94  A    between atoms: _219  and  _221
REMARK   95  A    between atoms: _221  and  _222
REMARK   96  A    between atoms: _221  and  _224
REMARK   97  A    between atoms: _224  and  _225
REMARK   98  A    between atoms: _228  and  _230
REMARK   99  A    between atoms: _230  and  _231
REMARK  100  A    between atoms: _230  and  _233
REMARK  101  A    between atoms: _233  and  _234
REMARK  102  A    between atoms: _239  and  _241
REMARK  103  A    between atoms: _241  and  _242
REMARK  104  A    between atoms: _244  and  _246
REMARK  105  A    between atoms: _246  and  _247
REMARK  106  A    between atoms: _246  and  _249
REMARK  107  A    between atoms: _249  and  _250
REMARK  108  A    between atoms: _253  and  _255
REMARK  109  A    between atoms: _255  and  _256
REMARK  110  A    between atoms: _255  and  _258
REMARK  111  A    between atoms: _258  and  _259
REMARK  112  A    between atoms: _262  and  _264
REMARK  113  A    between atoms: _264  and  _265
REMARK  114  A    between atoms: _268  and  _270
REMARK  115  A    between atoms: _270  and  _271
REMARK  116  A    between atoms: _270  and  _273
REMARK  117  A    between atoms: _276  and  _278
REMARK  118  A    between atoms: _278  and  _279
REMARK  119  A    between atoms: _278  and  _281
REMARK  120  A    between atoms: _281  and  _282
REMARK  121  A    between atoms: _282  and  _283
REMARK  122  A    between atoms: _286  and  _288
REMARK  123  A    between atoms: _288  and  _289
REMARK  124  A    between atoms: _288  and  _291
REMARK  125  A    between atoms: _291  and  _292
REMARK  126  A    between atoms: _292  and  _293
REMARK  127  A    between atoms: _295  and  _297
REMARK  128  A    between atoms: _297  and  _298
REMARK  129  A    between atoms: _297  and  _300
REMARK  130  A    between atoms: _300  and  _301
REMARK  131  A    between atoms: _301  and  _302
REMARK  132  A    between atoms: _305  and  _307
REMARK  133  A    between atoms: _307  and  _308
REMARK  134  A    between atoms: _311  and  _313
REMARK  135  A    between atoms: _313  and  _314
REMARK  136  A    between atoms: _313  and  _316
REMARK  137  A    between atoms: _316  and  _317
REMARK  138  A    between atoms: _320  and  _322
REMARK  139  A    between atoms: _322  and  _323
REMARK  140  A    between atoms: _322  and  _325
REMARK  141  A    between atoms: _325  and  _326
REMARK  142  A    between atoms: _329  and  _331
REMARK  143  A    between atoms: _331  and  _332
REMARK  144  A    between atoms: _331  and  _334
REMARK  145  A    between atoms: _334  and  _335
REMARK  146  A    between atoms: _335  and  _336
REMARK  147  A    between atoms: _336  and  _337
REMARK  148  A    between atoms: _346  and  _348
REMARK  149  A    between atoms: _348  and  _349
REMARK  150  A    between atoms: _352  and  _354
REMARK  151  A    between atoms: _354  and  _355
REMARK  152  A    between atoms: _354  and  _357
REMARK  153  A    between atoms: _357  and  _358
REMARK  154  A    between atoms: _361  and  _363
REMARK  155  A    between atoms: _363  and  _364
REMARK  156  A    between atoms: _363  and  _366
REMARK  157  A    between atoms: _366  and  _367
REMARK  158  A    between atoms: _369  and  _371
REMARK  159  A    between atoms: _371  and  _372
REMARK  160  A    between atoms: _371  and  _374
REMARK  161  A    between atoms: _374  and  _375
REMARK  162  A    between atoms: _378  and  _380
REMARK  163  A    between atoms: _380  and  _381
REMARK  164  A    between atoms: _380  and  _383
REMARK  165  A    between atoms: _386  and  _388
REMARK  166  A    between atoms: _388  and  _389
REMARK  167  A    between atoms: _392  and  _394
REMARK  168  A    between atoms: _394  and  _395
REMARK  169  A    between atoms: _394  and  _397
REMARK  170  A    between atoms: _397  and  _398
REMARK  171  A    between atoms: _401  and  _403
REMARK  172  A    between atoms: _403  and  _404
REMARK  173  A    between atoms: _403  and  _406
REMARK  174  A    between atoms: _406  and  _407
REMARK  175  A    between atoms: _409  and  _411
REMARK  176  A    between atoms: _411  and  _412
REMARK  177  A    between atoms: _411  and  _414
REMARK  178  A    between atoms: _414  and  _415
REMARK  179  A    between atoms: _420  and  _422
REMARK  180  A    between atoms: _422  and  _423
REMARK  181  A    between atoms: _422  and  _425
REMARK  182  A    between atoms: _425  and  _426
REMARK  183  A    between atoms: _428  and  _430
REMARK  184  A    between atoms: _430  and  _431
REMARK  185  A    between atoms: _430  and  _433
REMARK  186  A    between atoms: _433  and  _434
REMARK  187  A    between atoms: _440  and  _442
REMARK  188  A    between atoms: _442  and  _443
REMARK  189  A    between atoms: _442  and  _445
REMARK  190  A    between atoms: _445  and  _446
REMARK  191  A    between atoms: _449  and  _451
REMARK  192  A    between atoms: _451  and  _452
REMARK  193  A    between atoms: _451  and  _454
REMARK  194  A    between atoms: _454  and  _455
REMARK  195  A    between atoms: _458  and  _460
REMARK  196  A    between atoms: _460  and  _461
REMARK  197  A    between atoms: _464  and  _466
REMARK  198  A    between atoms: _466  and  _467
REMARK  199  A    between atoms: _466  and  _469
REMARK  200  A    between atoms: _469  and  _470
REMARK  201  A    between atoms: _473  and  _475
REMARK  202  A    between atoms: _475  and  _476
REMARK  203  A    between atoms: _475  and  _478
REMARK  204  A    between atoms: _481  and  _483
REMARK  205  A    between atoms: _483  and  _484
REMARK  206  A    between atoms: _487  and  _489
REMARK  207  A    between atoms: _489  and  _490
REMARK  208  A    between atoms: _489  and  _492
REMARK  209  A    between atoms: _492  and  _493
REMARK  210  A    between atoms: _499  and  _501
REMARK  211  A    between atoms: _501  and  _502
REMARK  212  A    between atoms: _501  and  _504
REMARK  213  A    between atoms: _504  and  _505
REMARK  214  A    between atoms: _510  and  _511
REMARK  215  A    between atoms: _513  and  _515
REMARK  216  A    between atoms: _515  and  _516
REMARK  217  A    between atoms: _515  and  _518
REMARK  218  A    between atoms: _518  and  _519
REMARK  219  A    between atoms: _523  and  _524
REMARK                            x       y       z     vdW  Elec       q    Type
REMARK                         _______ _______ _______ _____ _____    ______ ____
ROOT
ATOM      1  O   HOH     1      63.613  74.835  22.577  0.00  0.00    +0.000 OA
ENDROOT
TORSDOF 0
REMARK  Name = ../refined-set-2016/1nc1/1nc1_pocket.pdb
REMARK  219 active torsions:
REMARK  status: ('A' for Active; 'I' for Inactive)
REMARK    1  A    between atoms: _1  and  _3
REMARK    2  A    between atoms: _3  and  _4
REMARK    3  A    between atoms: _6  and  _8
REMARK    4  A    between atoms: _8  and  _9
REMARK    5  A    between atoms: _12  and  _14
REMARK    6  A    between atoms: _14  and  _15
REMARK    7  A    between atoms: _14  and  _17
REMARK    8  A    between atoms: _17  and  _18
REMARK    9  A    between atoms: _18  and  _19
REMARK   10  A    between atoms: _21  and  _23
REMARK   11  A    between atoms: _23  and  _24
REMARK   12  A    between atoms: _23  and  _26
REMARK   13  A    between atoms: _26  and  _27
REMARK   14  A    between atoms: _27  and  _28
REMARK   15  A    between atoms: _31  and  _33
REMARK   16  A    between atoms: _33  and  _34
REMARK   17  A    between atoms: _33  and  _36
REMARK   18  A    between atoms: _36  and  _37
REMARK   19  A    between atoms: _37  and  _38
REMARK   20  A    between atoms: _41  and  _43
REMARK   21  A    between atoms: _43  and  _44
REMARK   22  A    between atoms: _43  and  _46
REMARK   23  A    between atoms: _46  and  _47
REMARK   24  A    between atoms: _49  and  _51
REMARK   25  A    between atoms: _51  and  _52
REMARK   26  A    between atoms: _54  and  _56
REMARK   27  A    between atoms: _56  and  _57
REMARK   28  A    between atoms: _56  and  _59
REMARK   29  A    between atoms: _59  and  _60
REMARK   30  A    between atoms: _63  and  _65
REMARK   31  A    between atoms: _65  and  _66
REMARK   32  A    between atoms: _68  and  _70
REMARK   33  A    between atoms: _70  and  _71
REMARK   34  A    between atoms: _70  and  _73
REMARK   35  A    between atoms: _73  and  _74
REMARK   36  A    between atoms: _74  and  _75
REMARK   37  A    between atoms: _75  and  _76
REMARK   38  A    between atoms: _76  and  _77
REMARK   39  A    between atoms: _81  and  _83
REMARK   40  A    between atoms: _83  and  _84
REMARK   41  A    between atoms: _87  and  _89
REMARK   42  A    between atoms: _89  and  _90
REMARK   43  A    between atoms: _93  and  _95
REMARK   44  A    between atoms: _95  and  _96
REMARK   45  A    between atoms: _95  and  _98
REMARK   46  A    between atoms: _98  and  _99
REMARK   47  A    between atoms: _104  and  _106
REMARK   48  A    between atoms: _106  and  _107
REMARK   49  A    between atoms: _106  and  _109
REMARK   50  A    between atoms: _109  and  _110
REMARK   51  A    between atoms: _113  and  _115
REMARK   52  A    between atoms: _115  and  _116
REMARK   53  A    between atoms: _118  and  _120
REMARK   54  A    between atoms: _120  and  _121
REMARK   55  A    between atoms: _120  and  _123
REMARK   56  A    between atoms: _123  and  _124
REMARK   57  A    between atoms: _126  and  _128
REMARK   58  A    between atoms: _128  and  _129
REMARK   59  A    between atoms: _132  and  _134
REMARK   60  A    between atoms: _134  and  _135
REMARK   61  A    between atoms: _137  and  _139
REMARK   62  A    between atoms: _139  and  _140
REMARK   63  A    between atoms: _142  and  _144
REMARK   64  A    between atoms: _144  and  _145
REMARK   65  A    between atoms: _144  and  _147
REMARK   66  A    between atoms: _147  and  _148
REMARK   67  A    between atoms: _151  and  _153
REMARK   68  A    between atoms: _153  and  _154
REMARK   69  A    between atoms: _153  and  _156
REMARK   70  A    between atoms: _156  and  _157
REMARK   71  A    between atoms: _162  and  _164
REMARK   72  A    between atoms: _164  and  _165
REMARK   73  A    between atoms: _164  and  _167
REMARK   74  A    between atoms: _167  and  _168
REMARK   75  A    between atoms: _171  and  _173
REMARK   76  A    between atoms: _173  and  _174
REMARK   77  A    between atoms: _173  and  _176
REMARK   78  A    between atoms: _179  and  _181
REMARK   79  A    between atoms: _181  and  _182
REMARK   80  A    between atoms: _181  and  _184
REMARK   81  A    between atoms: _184  and  _185
REMARK   82  A    between atoms: _187  and  _189
REMARK   83  A    between atoms: _189  and  _190
REMARK   84  A    between atoms: _192  and  _194
REMARK   85  A    between atoms: _194  and  _195
REMARK   86  A    between atoms: _194  and  _197
REMARK   87  A    between atoms: _197  and  _198
REMARK   88  A    between atoms: _201  and  _203
REMARK   89  A    between atoms: _203  and  _204
REMARK   90  A    between atoms: _207  and  _209
REMARK   91  A    between atoms: _209  and  _210
REMARK   92  A    between atoms: _209  and  _212
REMARK   93  A    between atoms: _212  and  _213
REMARK   94  A    between atoms: _219  and  _221
REMARK   95  A    between atoms: _221  and  _222
REMARK   96  A    between atoms: _221  and  _224
REMARK   97  A    between atoms: _224  and  _225
REMARK   98  A    between atoms: _228  and  _230
REMARK   99  A    between atoms: _230  and  _231
REMARK  100  A    between atoms: _230  and  _233
REMARK  101  A    between atoms: _233  and  _234
REMARK  102  A    between atoms: _239  and  _241
REMARK  103  A    between atoms: _241  and  _242
REMARK  104  A    between atoms: _244  and  _246
REMARK  105  A    between atoms: _246  and  _247
REMARK  106  A    between atoms: _246  and  _249
REMARK  107  A    between atoms: _249  and  _250
REMARK  108  A    between atoms: _253  and  _255
REMARK  109  A    between atoms: _255  and  _256
REMARK  110  A    between atoms: _255  and  _258
REMARK  111  A    between atoms: _258  and  _259
REMARK  112  A    between atoms: _262  and  _264
REMARK  113  A    between atoms: _264  and  _265
REMARK  114  A    between atoms: _268  and  _270
REMARK  115  A    between atoms: _270  and  _271
REMARK  116  A    between atoms: _270  and  _273
REMARK  117  A    between atoms: _276  and  _278
REMARK  118  A    between atoms: _278  and  _279
REMARK  119  A    between atoms: _278  and  _281
REMARK  120  A    between atoms: _281  and  _282
REMARK  121  A    between atoms: _282  and  _283
REMARK  122  A    between atoms: _286  and  _288
REMARK  123  A    between atoms: _288  and  _289
REMARK  124  A    between atoms: _288  and  _291
REMARK  125  A    between atoms: _291  and  _292
REMARK  126  A    between atoms: _292  and  _293
REMARK  127  A    between atoms: _295  and  _297
REMARK  128  A    between atoms: _297  and  _298
REMARK  129  A    between atoms: _297  and  _300
REMARK  130  A    between atoms: _300  and  _301
REMARK  131  A    between atoms: _301  and  _302
REMARK  132  A    between atoms: _305  and  _307
REMARK  133  A    between atoms: _307  and  _308
REMARK  134  A    between atoms: _311  and  _313
REMARK  135  A    between atoms: _313  and  _314
REMARK  136  A    between atoms: _313  and  _316
REMARK  137  A    between atoms: _316  and  _317
REMARK  138  A    between atoms: _320  and  _322
REMARK  139  A    between atoms: _322  and  _323
REMARK  140  A    between atoms: _322  and  _325
REMARK  141  A    between atoms: _325  and  _326
REMARK  142  A    between atoms: _329  and  _331
REMARK  143  A    between atoms: _331  and  _332
REMARK  144  A    between atoms: _331  and  _334
REMARK  145  A    between atoms: _334  and  _335
REMARK  146  A    between atoms: _335  and  _336
REMARK  147  A    between atoms: _336  and  _337
REMARK  148  A    between atoms: _346  and  _348
REMARK  149  A    between atoms: _348  and  _349
REMARK  150  A    between atoms: _352  and  _354
REMARK  151  A    between atoms: _354  and  _355
REMARK  152  A    between atoms: _354  and  _357
REMARK  153  A    between atoms: _357  and  _358
REMARK  154  A    between atoms: _361  and  _363
REMARK  155  A    between atoms: _363  and  _364
REMARK  156  A    between atoms: _363  and  _366
REMARK  157  A    between atoms: _366  and  _367
REMARK  158  A    between atoms: _369  and  _371
REMARK  159  A    between atoms: _371  and  _372
REMARK  160  A    between atoms: _371  and  _374
REMARK  161  A    between atoms: _374  and  _375
REMARK  162  A    between atoms: _378  and  _380
REMARK  163  A    between atoms: _380  and  _381
REMARK  164  A    between atoms: _380  and  _383
REMARK  165  A    between atoms: _386  and  _388
REMARK  166  A    between atoms: _388  and  _389
REMARK  167  A    between atoms: _392  and  _394
REMARK  168  A    between atoms: _394  and  _395
REMARK  169  A    between atoms: _394  and  _397
REMARK  170  A    between atoms: _397  and  _398
REMARK  171  A    between atoms: _401  and  _403
REMARK  172  A    between atoms: _403  and  _404
REMARK  173  A    between atoms: _403  and  _406
REMARK  174  A    between atoms: _406  and  _407
REMARK  175  A    between atoms: _409  and  _411
REMARK  176  A    between atoms: _411  and  _412
REMARK  177  A    between atoms: _411  and  _414
REMARK  178  A    between atoms: _414  and  _415
REMARK  179  A    between atoms: _420  and  _422
REMARK  180  A    between atoms: _422  and  _423
REMARK  181  A    between atoms: _422  and  _425
REMARK  182  A    between atoms: _425  and  _426
REMARK  183  A    between atoms: _428  and  _430
REMARK  184  A    between atoms: _430  and  _431
REMARK  185  A    between atoms: _430  and  _433
REMARK  186  A    between atoms: _433  and  _434
REMARK  187  A    between atoms: _440  and  _442
REMARK  188  A    between atoms: _442  and  _443
REMARK  189  A    between atoms: _442  and  _445
REMARK  190  A    between atoms: _445  and  _446
REMARK  191  A    between atoms: _449  and  _451
REMARK  192  A    between atoms: _451  and  _452
REMARK  193  A    between atoms: _451  and  _454
REMARK  194  A    between atoms: _454  and  _455
REMARK  195  A    between atoms: _458  and  _460
REMARK  196  A    between atoms: _460  and  _461
REMARK  197  A    between atoms: _464  and  _466
REMARK  198  A    between atoms: _466  and  _467
REMARK  199  A    between atoms: _466  and  _469
REMARK  200  A    between atoms: _469  and  _470
REMARK  201  A    between atoms: _473  and  _475
REMARK  202  A    between atoms: _475  and  _476
REMARK  203  A    between atoms: _475  and  _478
REMARK  204  A    between atoms: _481  and  _483
REMARK  205  A    between atoms: _483  and  _484
REMARK  206  A    between atoms: _487  and  _489
REMARK  207  A    between atoms: _489  and  _490
REMARK  208  A    between atoms: _489  and  _492
REMARK  209  A    between atoms: _492  and  _493
REMARK  210  A    between atoms: _499  and  _501
REMARK  211  A    between atoms: _501  and  _502
REMARK  212  A    between atoms: _501  and  _504
REMARK  213  A    between atoms: _504  and  _505
REMARK  214  A    between atoms: _510  and  _511
REMARK  215  A    between atoms: _513  and  _515
REMARK  216  A    between atoms: _515  and  _516
REMARK  217  A    between atoms: _515  and  _518
REMARK  218  A    between atoms: _518  and  _519
REMARK  219  A    between atoms: _523  and  _524
REMARK                            x       y       z     vdW  Elec       q    Type
REMARK                         _______ _______ _______ _____ _____    ______ ____
ROOT
ATOM      1  O   HOH     1      52.289  77.758  23.029  0.00  0.00    +0.000 OA
ENDROOT
TORSDOF 0
REMARK  Name = ../refined-set-2016/1nc1/1nc1_pocket.pdb
REMARK  219 active torsions:
REMARK  status: ('A' for Active; 'I' for Inactive)
REMARK    1  A    between atoms: _1  and  _3
REMARK    2  A    between atoms: _3  and  _4
REMARK    3  A    between atoms: _6  and  _8
REMARK    4  A    between atoms: _8  and  _9
REMARK    5  A    between atoms: _12  and  _14
REMARK    6  A    between atoms: _14  and  _15
REMARK    7  A    between atoms: _14  and  _17
REMARK    8  A    between atoms: _17  and  _18
REMARK    9  A    between atoms: _18  and  _19
REMARK   10  A    between atoms: _21  and  _23
REMARK   11  A    between atoms: _23  and  _24
REMARK   12  A    between atoms: _23  and  _26
REMARK   13  A    between atoms: _26  and  _27
REMARK   14  A    between atoms: _27  and  _28
REMARK   15  A    between atoms: _31  and  _33
REMARK   16  A    between atoms: _33  and  _34
REMARK   17  A    between atoms: _33  and  _36
REMARK   18  A    between atoms: _36  and  _37
REMARK   19  A    between atoms: _37  and  _38
REMARK   20  A    between atoms: _41  and  _43
REMARK   21  A    between atoms: _43  and  _44
REMARK   22  A    between atoms: _43  and  _46
REMARK   23  A    between atoms: _46  and  _47
REMARK   24  A    between atoms: _49  and  _51
REMARK   25  A    between atoms: _51  and  _52
REMARK   26  A    between atoms: _54  and  _56
REMARK   27  A    between atoms: _56  and  _57
REMARK   28  A    between atoms: _56  and  _59
REMARK   29  A    between atoms: _59  and  _60
REMARK   30  A    between atoms: _63  and  _65
REMARK   31  A    between atoms: _65  and  _66
REMARK   32  A    between atoms: _68  and  _70
REMARK   33  A    between atoms: _70  and  _71
REMARK   34  A    between atoms: _70  and  _73
REMARK   35  A    between atoms: _73  and  _74
REMARK   36  A    between atoms: _74  and  _75
REMARK   37  A    between atoms: _75  and  _76
REMARK   38  A    between atoms: _76  and  _77
REMARK   39  A    between atoms: _81  and  _83
REMARK   40  A    between atoms: _83  and  _84
REMARK   41  A    between atoms: _87  and  _89
REMARK   42  A    between atoms: _89  and  _90
REMARK   43  A    between atoms: _93  and  _95
REMARK   44  A    between atoms: _95  and  _96
REMARK   45  A    between atoms: _95  and  _98
REMARK   46  A    between atoms: _98  and  _99
REMARK   47  A    between atoms: _104  and  _106
REMARK   48  A    between atoms: _106  and  _107
REMARK   49  A    between atoms: _106  and  _109
REMARK   50  A    between atoms: _109  and  _110
REMARK   51  A    between atoms: _113  and  _115
REMARK   52  A    between atoms: _115  and  _116
REMARK   53  A    between atoms: _118  and  _120
REMARK   54  A    between atoms: _120  and  _121
REMARK   55  A    between atoms: _120  and  _123
REMARK   56  A    between atoms: _123  and  _124
REMARK   57  A    between atoms: _126  and  _128
REMARK   58  A    between atoms: _128  and  _129
REMARK   59  A    between atoms: _132  and  _134
REMARK   60  A    between atoms: _134  and  _135
REMARK   61  A    between atoms: _137  and  _139
REMARK   62  A    between atoms: _139  and  _140
REMARK   63  A    between atoms: _142  and  _144
REMARK   64  A    between atoms: _144  and  _145
REMARK   65  A    between atoms: _144  and  _147
REMARK   66  A    between atoms: _147  and  _148
REMARK   67  A    between atoms: _151  and  _153
REMARK   68  A    between atoms: _153  and  _154
REMARK   69  A    between atoms: _153  and  _156
REMARK   70  A    between atoms: _156  and  _157
REMARK   71  A    between atoms: _162  and  _164
REMARK   72  A    between atoms: _164  and  _165
REMARK   73  A    between atoms: _164  and  _167
REMARK   74  A    between atoms: _167  and  _168
REMARK   75  A    between atoms: _171  and  _173
REMARK   76  A    between atoms: _173  and  _174
REMARK   77  A    between atoms: _173  and  _176
REMARK   78  A    between atoms: _179  and  _181
REMARK   79  A    between atoms: _181  and  _182
REMARK   80  A    between atoms: _181  and  _184
REMARK   81  A    between atoms: _184  and  _185
REMARK   82  A    between atoms: _187  and  _189
REMARK   83  A    between atoms: _189  and  _190
REMARK   84  A    between atoms: _192  and  _194
REMARK   85  A    between atoms: _194  and  _195
REMARK   86  A    between atoms: _194  and  _197
REMARK   87  A    between atoms: _197  and  _198
REMARK   88  A    between atoms: _201  and  _203
REMARK   89  A    between atoms: _203  and  _204
REMARK   90  A    between atoms: _207  and  _209
REMARK   91  A    between atoms: _209  and  _210
REMARK   92  A    between atoms: _209  and  _212
REMARK   93  A    between atoms: _212  and  _213
REMARK   94  A    between atoms: _219  and  _221
REMARK   95  A    between atoms: _221  and  _222
REMARK   96  A    between atoms: _221  and  _224
REMARK   97  A    between atoms: _224  and  _225
REMARK   98  A    between atoms: _228  and  _230
REMARK   99  A    between atoms: _230  and  _231
REMARK  100  A    between atoms: _230  and  _233
REMARK  101  A    between atoms: _233  and  _234
REMARK  102  A    between atoms: _239  and  _241
REMARK  103  A    between atoms: _241  and  _242
REMARK  104  A    between atoms: _244  and  _246
REMARK  105  A    between atoms: _246  and  _247
REMARK  106  A    between atoms: _246  and  _249
REMARK  107  A    between atoms: _249  and  _250
REMARK  108  A    between atoms: _253  and  _255
REMARK  109  A    between atoms: _255  and  _256
REMARK  110  A    between atoms: _255  and  _258
REMARK  111  A    between atoms: _258  and  _259
REMARK  112  A    between atoms: _262  and  _264
REMARK  113  A    between atoms: _264  and  _265
REMARK  114  A    between atoms: _268  and  _270
REMARK  115  A    between atoms: _270  and  _271
REMARK  116  A    between atoms: _270  and  _273
REMARK  117  A    between atoms: _276  and  _278
REMARK  118  A    between atoms: _278  and  _279
REMARK  119  A    between atoms: _278  and  _281
REMARK  120  A    between atoms: _281  and  _282
REMARK  121  A    between atoms: _282  and  _283
REMARK  122  A    between atoms: _286  and  _288
REMARK  123  A    between atoms: _288  and  _289
REMARK  124  A    between atoms: _288  and  _291
REMARK  125  A    between atoms: _291  and  _292
REMARK  126  A    between atoms: _292  and  _293
REMARK  127  A    between atoms: _295  and  _297
REMARK  128  A    between atoms: _297  and  _298
REMARK  129  A    between atoms: _297  and  _300
REMARK  130  A    between atoms: _300  and  _301
REMARK  131  A    between atoms: _301  and  _302
REMARK  132  A    between atoms: _305  and  _307
REMARK  133  A    between atoms: _307  and  _308
REMARK  134  A    between atoms: _311  and  _313
REMARK  135  A    between atoms: _313  and  _314
REMARK  136  A    between atoms: _313  and  _316
REMARK  137  A    between atoms: _316  and  _317
REMARK  138  A    between atoms: _320  and  _322
REMARK  139  A    between atoms: _322  and  _323
REMARK  140  A    between atoms: _322  and  _325
REMARK  141  A    between atoms: _325  and  _326
REMARK  142  A    between atoms: _329  and  _331
REMARK  143  A    between atoms: _331  and  _332
REMARK  144  A    between atoms: _331  and  _334
REMARK  145  A    between atoms: _334  and  _335
REMARK  146  A    between atoms: _335  and  _336
REMARK  147  A    between atoms: _336  and  _337
REMARK  148  A    between atoms: _346  and  _348
REMARK  149  A    between atoms: _348  and  _349
REMARK  150  A    between atoms: _352  and  _354
REMARK  151  A    between atoms: _354  and  _355
REMARK  152  A    between atoms: _354  and  _357
REMARK  153  A    between atoms: _357  and  _358
REMARK  154  A    between atoms: _361  and  _363
REMARK  155  A    between atoms: _363  and  _364
REMARK  156  A    between atoms: _363  and  _366
REMARK  157  A    between atoms: _366  and  _367
REMARK  158  A    between atoms: _369  and  _371
REMARK  159  A    between atoms: _371  and  _372
REMARK  160  A    between atoms: _371  and  _374
REMARK  161  A    between atoms: _374  and  _375
REMARK  162  A    between atoms: _378  and  _380
REMARK  163  A    between atoms: _380  and  _381
REMARK  164  A    between atoms: _380  and  _383
REMARK  165  A    between atoms: _386  and  _388
REMARK  166  A    between atoms: _388  and  _389
REMARK  167  A    between atoms: _392  and  _394
REMARK  168  A    between atoms: _394  and  _395
REMARK  169  A    between atoms: _394  and  _397
REMARK  170  A    between atoms: _397  and  _398
REMARK  171  A    between atoms: _401  and  _403
REMARK  172  A    between atoms: _403  and  _404
REMARK  173  A    between atoms: _403  and  _406
REMARK  174  A    between atoms: _406  and  _407
REMARK  175  A    between atoms: _409  and  _411
REMARK  176  A    between atoms: _411  and  _412
REMARK  177  A    between atoms: _411  and  _414
REMARK  178  A    between atoms: _414  and  _415
REMARK  179  A    between atoms: _420  and  _422
REMARK  180  A    between atoms: _422  and  _423
REMARK  181  A    between atoms: _422  and  _425
REMARK  182  A    between atoms: _425  and  _426
REMARK  183  A    between atoms: _428  and  _430
REMARK  184  A    between atoms: _430  and  _431
REMARK  185  A    between atoms: _430  and  _433
REMARK  186  A    between atoms: _433  and  _434
REMARK  187  A    between atoms: _440  and  _442
REMARK  188  A    between atoms: _442  and  _443
REMARK  189  A    between atoms: _442  and  _445
REMARK  190  A    between atoms: _445  and  _446
REMARK  191  A    between atoms: _449  and  _451
REMARK  192  A    between atoms: _451  and  _452
REMARK  193  A    between atoms: _451  and  _454
REMARK  194  A    between atoms: _454  and  _455
REMARK  195  A    between atoms: _458  and  _460
REMARK  196  A    between atoms: _460  and  _461
REMARK  197  A    between atoms: _464  and  _466
REMARK  198  A    between atoms: _466  and  _467
REMARK  199  A    between atoms: _466  and  _469
REMARK  200  A    between atoms: _469  and  _470
REMARK  201  A    between atoms: _473  and  _475
REMARK  202  A    between atoms: _475  and  _476
REMARK  203  A    between atoms: _475  and  _478
REMARK  204  A    between atoms: _481  and  _483
REMARK  205  A    between atoms: _483  and  _484
REMARK  206  A    between atoms: _487  and  _489
REMARK  207  A    between atoms: _489  and  _490
REMARK  208  A    between atoms: _489  and  _492
REMARK  209  A    between atoms: _492  and  _493
REMARK  210  A    between atoms: _499  and  _501
REMARK  211  A    between atoms: _501  and  _502
REMARK  212  A    between atoms: _501  and  _504
REMARK  213  A    between atoms: _504  and  _505
REMARK  214  A    between atoms: _510  and  _511
REMARK  215  A    between atoms: _513  and  _515
REMARK  216  A    between atoms: _515  and  _516
REMARK  217  A    between atoms: _515  and  _518
REMARK  218  A    between atoms: _518  and  _519
REMARK  219  A    between atoms: _523  and  _524
REMARK                            x       y       z     vdW  Elec       q    Type
REMARK                         _______ _______ _______ _____ _____    ______ ____
ROOT
ATOM      1  O   HOH     1      64.138  75.901  25.266  0.00  0.00    +0.000 OA
ENDROOT
TORSDOF 0
REMARK  Name = ../refined-set-2016/1nc1/1nc1_pocket.pdb
REMARK  219 active torsions:
REMARK  status: ('A' for Active; 'I' for Inactive)
REMARK    1  A    between atoms: _1  and  _3
REMARK    2  A    between atoms: _3  and  _4
REMARK    3  A    between atoms: _6  and  _8
REMARK    4  A    between atoms: _8  and  _9
REMARK    5  A    between atoms: _12  and  _14
REMARK    6  A    between atoms: _14  and  _15
REMARK    7  A    between atoms: _14  and  _17
REMARK    8  A    between atoms: _17  and  _18
REMARK    9  A    between atoms: _18  and  _19
REMARK   10  A    between atoms: _21  and  _23
REMARK   11  A    between atoms: _23  and  _24
REMARK   12  A    between atoms: _23  and  _26
REMARK   13  A    between atoms: _26  and  _27
REMARK   14  A    between atoms: _27  and  _28
REMARK   15  A    between atoms: _31  and  _33
REMARK   16  A    between atoms: _33  and  _34
REMARK   17  A    between atoms: _33  and  _36
REMARK   18  A    between atoms: _36  and  _37
REMARK   19  A    between atoms: _37  and  _38
REMARK   20  A    between atoms: _41  and  _43
REMARK   21  A    between atoms: _43  and  _44
REMARK   22  A    between atoms: _43  and  _46
REMARK   23  A    between atoms: _46  and  _47
REMARK   24  A    between atoms: _49  and  _51
REMARK   25  A    between atoms: _51  and  _52
REMARK   26  A    between atoms: _54  and  _56
REMARK   27  A    between atoms: _56  and  _57
REMARK   28  A    between atoms: _56  and  _59
REMARK   29  A    between atoms: _59  and  _60
REMARK   30  A    between atoms: _63  and  _65
REMARK   31  A    between atoms: _65  and  _66
REMARK   32  A    between atoms: _68  and  _70
REMARK   33  A    between atoms: _70  and  _71
REMARK   34  A    between atoms: _70  and  _73
REMARK   35  A    between atoms: _73  and  _74
REMARK   36  A    between atoms: _74  and  _75
REMARK   37  A    between atoms: _75  and  _76
REMARK   38  A    between atoms: _76  and  _77
REMARK   39  A    between atoms: _81  and  _83
REMARK   40  A    between atoms: _83  and  _84
REMARK   41  A    between atoms: _87  and  _89
REMARK   42  A    between atoms: _89  and  _90
REMARK   43  A    between atoms: _93  and  _95
REMARK   44  A    between atoms: _95  and  _96
REMARK   45  A    between atoms: _95  and  _98
REMARK   46  A    between atoms: _98  and  _99
REMARK   47  A    between atoms: _104  and  _106
REMARK   48  A    between atoms: _106  and  _107
REMARK   49  A    between atoms: _106  and  _109
REMARK   50  A    between atoms: _109  and  _110
REMARK   51  A    between atoms: _113  and  _115
REMARK   52  A    between atoms: _115  and  _116
REMARK   53  A    between atoms: _118  and  _120
REMARK   54  A    between atoms: _120  and  _121
REMARK   55  A    between atoms: _120  and  _123
REMARK   56  A    between atoms: _123  and  _124
REMARK   57  A    between atoms: _126  and  _128
REMARK   58  A    between atoms: _128  and  _129
REMARK   59  A    between atoms: _132  and  _134
REMARK   60  A    between atoms: _134  and  _135
REMARK   61  A    between atoms: _137  and  _139
REMARK   62  A    between atoms: _139  and  _140
REMARK   63  A    between atoms: _142  and  _144
REMARK   64  A    between atoms: _144  and  _145
REMARK   65  A    between atoms: _144  and  _147
REMARK   66  A    between atoms: _147  and  _148
REMARK   67  A    between atoms: _151  and  _153
REMARK   68  A    between atoms: _153  and  _154
REMARK   69  A    between atoms: _153  and  _156
REMARK   70  A    between atoms: _156  and  _157
REMARK   71  A    between atoms: _162  and  _164
REMARK   72  A    between atoms: _164  and  _165
REMARK   73  A    between atoms: _164  and  _167
REMARK   74  A    between atoms: _167  and  _168
REMARK   75  A    between atoms: _171  and  _173
REMARK   76  A    between atoms: _173  and  _174
REMARK   77  A    between atoms: _173  and  _176
REMARK   78  A    between atoms: _179  and  _181
REMARK   79  A    between atoms: _181  and  _182
REMARK   80  A    between atoms: _181  and  _184
REMARK   81  A    between atoms: _184  and  _185
REMARK   82  A    between atoms: _187  and  _189
REMARK   83  A    between atoms: _189  and  _190
REMARK   84  A    between atoms: _192  and  _194
REMARK   85  A    between atoms: _194  and  _195
REMARK   86  A    between atoms: _194  and  _197
REMARK   87  A    between atoms: _197  and  _198
REMARK   88  A    between atoms: _201  and  _203
REMARK   89  A    between atoms: _203  and  _204
REMARK   90  A    between atoms: _207  and  _209
REMARK   91  A    between atoms: _209  and  _210
REMARK   92  A    between atoms: _209  and  _212
REMARK   93  A    between atoms: _212  and  _213
REMARK   94  A    between atoms: _219  and  _221
REMARK   95  A    between atoms: _221  and  _222
REMARK   96  A    between atoms: _221  and  _224
REMARK   97  A    between atoms: _224  and  _225
REMARK   98  A    between atoms: _228  and  _230
REMARK   99  A    between atoms: _230  and  _231
REMARK  100  A    between atoms: _230  and  _233
REMARK  101  A    between atoms: _233  and  _234
REMARK  102  A    between atoms: _239  and  _241
REMARK  103  A    between atoms: _241  and  _242
REMARK  104  A    between atoms: _244  and  _246
REMARK  105  A    between atoms: _246  and  _247
REMARK  106  A    between atoms: _246  and  _249
REMARK  107  A    between atoms: _249  and  _250
REMARK  108  A    between atoms: _253  and  _255
REMARK  109  A    between atoms: _255  and  _256
REMARK  110  A    between atoms: _255  and  _258
REMARK  111  A    between atoms: _258  and  _259
REMARK  112  A    between atoms: _262  and  _264
REMARK  113  A    between atoms: _264  and  _265
REMARK  114  A    between atoms: _268  and  _270
REMARK  115  A    between atoms: _270  and  _271
REMARK  116  A    between atoms: _270  and  _273
REMARK  117  A    between atoms: _276  and  _278
REMARK  118  A    between atoms: _278  and  _279
REMARK  119  A    between atoms: _278  and  _281
REMARK  120  A    between atoms: _281  and  _282
REMARK  121  A    between atoms: _282  and  _283
REMARK  122  A    between atoms: _286  and  _288
REMARK  123  A    between atoms: _288  and  _289
REMARK  124  A    between atoms: _288  and  _291
REMARK  125  A    between atoms: _291  and  _292
REMARK  126  A    between atoms: _292  and  _293
REMARK  127  A    between atoms: _295  and  _297
REMARK  128  A    between atoms: _297  and  _298
REMARK  129  A    between atoms: _297  and  _300
REMARK  130  A    between atoms: _300  and  _301
REMARK  131  A    between atoms: _301  and  _302
REMARK  132  A    between atoms: _305  and  _307
REMARK  133  A    between atoms: _307  and  _308
REMARK  134  A    between atoms: _311  and  _313
REMARK  135  A    between atoms: _313  and  _314
REMARK  136  A    between atoms: _313  and  _316
REMARK  137  A    between atoms: _316  and  _317
REMARK  138  A    between atoms: _320  and  _322
REMARK  139  A    between atoms: _322  and  _323
REMARK  140  A    between atoms: _322  and  _325
REMARK  141  A    between atoms: _325  and  _326
REMARK  142  A    between atoms: _329  and  _331
REMARK  143  A    between atoms: _331  and  _332
REMARK  144  A    between atoms: _331  and  _334
REMARK  145  A    between atoms: _334  and  _335
REMARK  146  A    between atoms: _335  and  _336
REMARK  147  A    between atoms: _336  and  _337
REMARK  148  A    between atoms: _346  and  _348
REMARK  149  A    between atoms: _348  and  _349
REMARK  150  A    between atoms: _352  and  _354
REMARK  151  A    between atoms: _354  and  _355
REMARK  152  A    between atoms: _354  and  _357
REMARK  153  A    between atoms: _357  and  _358
REMARK  154  A    between atoms: _361  and  _363
REMARK  155  A    between atoms: _363  and  _364
REMARK  156  A    between atoms: _363  and  _366
REMARK  157  A    between atoms: _366  and  _367
REMARK  158  A    between atoms: _369  and  _371
REMARK  159  A    between atoms: _371  and  _372
REMARK  160  A    between atoms: _371  and  _374
REMARK  161  A    between atoms: _374  and  _375
REMARK  162  A    between atoms: _378  and  _380
REMARK  163  A    between atoms: _380  and  _381
REMARK  164  A    between atoms: _380  and  _383
REMARK  165  A    between atoms: _386  and  _388
REMARK  166  A    between atoms: _388  and  _389
REMARK  167  A    between atoms: _392  and  _394
REMARK  168  A    between atoms: _394  and  _395
REMARK  169  A    between atoms: _394  and  _397
REMARK  170  A    between atoms: _397  and  _398
REMARK  171  A    between atoms: _401  and  _403
REMARK  172  A    between atoms: _403  and  _404
REMARK  173  A    between atoms: _403  and  _406
REMARK  174  A    between atoms: _406  and  _407
REMARK  175  A    between atoms: _409  and  _411
REMARK  176  A    between atoms: _411  and  _412
REMARK  177  A    between atoms: _411  and  _414
REMARK  178  A    between atoms: _414  and  _415
REMARK  179  A    between atoms: _420  and  _422
REMARK  180  A    between atoms: _422  and  _423
REMARK  181  A    between atoms: _422  and  _425
REMARK  182  A    between atoms: _425  and  _426
REMARK  183  A    between atoms: _428  and  _430
REMARK  184  A    between atoms: _430  and  _431
REMARK  185  A    between atoms: _430  and  _433
REMARK  186  A    between atoms: _433  and  _434
REMARK  187  A    between atoms: _440  and  _442
REMARK  188  A    between atoms: _442  and  _443
REMARK  189  A    between atoms: _442  and  _445
REMARK  190  A    between atoms: _445  and  _446
REMARK  191  A    between atoms: _449  and  _451
REMARK  192  A    between atoms: _451  and  _452
REMARK  193  A    between atoms: _451  and  _454
REMARK  194  A    between atoms: _454  and  _455
REMARK  195  A    between atoms: _458  and  _460
REMARK  196  A    between atoms: _460  and  _461
REMARK  197  A    between atoms: _464  and  _466
REMARK  198  A    between atoms: _466  and  _467
REMARK  199  A    between atoms: _466  and  _469
REMARK  200  A    between atoms: _469  and  _470
REMARK  201  A    between atoms: _473  and  _475
REMARK  202  A    between atoms: _475  and  _476
REMARK  203  A    between atoms: _475  and  _478
REMARK  204  A    between atoms: _481  and  _483
REMARK  205  A    between atoms: _483  and  _484
REMARK  206  A    between atoms: _487  and  _489
REMARK  207  A    between atoms: _489  and  _490
REMARK  208  A    between atoms: _489  and  _492
REMARK  209  A    between atoms: _492  and  _493
REMARK  210  A    between atoms: _499  and  _501
REMARK  211  A    between atoms: _501  and  _502
REMARK  212  A    between atoms: _501  and  _504
REMARK  213  A    between atoms: _504  and  _505
REMARK  214  A    between atoms: _510  and  _511
REMARK  215  A    between atoms: _513  and  _515
REMARK  216  A    between atoms: _515  and  _516
REMARK  217  A    between atoms: _515  and  _518
REMARK  218  A    between atoms: _518  and  _519
REMARK  219  A    between atoms: _523  and  _524
REMARK                            x       y       z     vdW  Elec       q    Type
REMARK                         _______ _______ _______ _____ _____    ______ ____
ROOT
ATOM      1  O   HOH     1      45.310  74.477  19.418  0.00  0.00    +0.000 OA
ENDROOT
TORSDOF 0
REMARK  Name = ../refined-set-2016/1nc1/1nc1_pocket.pdb
REMARK  219 active torsions:
REMARK  status: ('A' for Active; 'I' for Inactive)
REMARK    1  A    between atoms: _1  and  _3
REMARK    2  A    between atoms: _3  and  _4
REMARK    3  A    between atoms: _6  and  _8
REMARK    4  A    between atoms: _8  and  _9
REMARK    5  A    between atoms: _12  and  _14
REMARK    6  A    between atoms: _14  and  _15
REMARK    7  A    between atoms: _14  and  _17
REMARK    8  A    between atoms: _17  and  _18
REMARK    9  A    between atoms: _18  and  _19
REMARK   10  A    between atoms: _21  and  _23
REMARK   11  A    between atoms: _23  and  _24
REMARK   12  A    between atoms: _23  and  _26
REMARK   13  A    between atoms: _26  and  _27
REMARK   14  A    between atoms: _27  and  _28
REMARK   15  A    between atoms: _31  and  _33
REMARK   16  A    between atoms: _33  and  _34
REMARK   17  A    between atoms: _33  and  _36
REMARK   18  A    between atoms: _36  and  _37
REMARK   19  A    between atoms: _37  and  _38
REMARK   20  A    between atoms: _41  and  _43
REMARK   21  A    between atoms: _43  and  _44
REMARK   22  A    between atoms: _43  and  _46
REMARK   23  A    between atoms: _46  and  _47
REMARK   24  A    between atoms: _49  and  _51
REMARK   25  A    between atoms: _51  and  _52
REMARK   26  A    between atoms: _54  and  _56
REMARK   27  A    between atoms: _56  and  _57
REMARK   28  A    between atoms: _56  and  _59
REMARK   29  A    between atoms: _59  and  _60
REMARK   30  A    between atoms: _63  and  _65
REMARK   31  A    between atoms: _65  and  _66
REMARK   32  A    between atoms: _68  and  _70
REMARK   33  A    between atoms: _70  and  _71
REMARK   34  A    between atoms: _70  and  _73
REMARK   35  A    between atoms: _73  and  _74
REMARK   36  A    between atoms: _74  and  _75
REMARK   37  A    between atoms: _75  and  _76
REMARK   38  A    between atoms: _76  and  _77
REMARK   39  A    between atoms: _81  and  _83
REMARK   40  A    between atoms: _83  and  _84
REMARK   41  A    between atoms: _87  and  _89
REMARK   42  A    between atoms: _89  and  _90
REMARK   43  A    between atoms: _93  and  _95
REMARK   44  A    between atoms: _95  and  _96
REMARK   45  A    between atoms: _95  and  _98
REMARK   46  A    between atoms: _98  and  _99
REMARK   47  A    between atoms: _104  and  _106
REMARK   48  A    between atoms: _106  and  _107
REMARK   49  A    between atoms: _106  and  _109
REMARK   50  A    between atoms: _109  and  _110
REMARK   51  A    between atoms: _113  and  _115
REMARK   52  A    between atoms: _115  and  _116
REMARK   53  A    between atoms: _118  and  _120
REMARK   54  A    between atoms: _120  and  _121
REMARK   55  A    between atoms: _120  and  _123
REMARK   56  A    between atoms: _123  and  _124
REMARK   57  A    between atoms: _126  and  _128
REMARK   58  A    between atoms: _128  and  _129
REMARK   59  A    between atoms: _132  and  _134
REMARK   60  A    between atoms: _134  and  _135
REMARK   61  A    between atoms: _137  and  _139
REMARK   62  A    between atoms: _139  and  _140
REMARK   63  A    between atoms: _142  and  _144
REMARK   64  A    between atoms: _144  and  _145
REMARK   65  A    between atoms: _144  and  _147
REMARK   66  A    between atoms: _147  and  _148
REMARK   67  A    between atoms: _151  and  _153
REMARK   68  A    between atoms: _153  and  _154
REMARK   69  A    between atoms: _153  and  _156
REMARK   70  A    between atoms: _156  and  _157
REMARK   71  A    between atoms: _162  and  _164
REMARK   72  A    between atoms: _164  and  _165
REMARK   73  A    between atoms: _164  and  _167
REMARK   74  A    between atoms: _167  and  _168
REMARK   75  A    between atoms: _171  and  _173
REMARK   76  A    between atoms: _173  and  _174
REMARK   77  A    between atoms: _173  and  _176
REMARK   78  A    between atoms: _179  and  _181
REMARK   79  A    between atoms: _181  and  _182
REMARK   80  A    between atoms: _181  and  _184
REMARK   81  A    between atoms: _184  and  _185
REMARK   82  A    between atoms: _187  and  _189
REMARK   83  A    between atoms: _189  and  _190
REMARK   84  A    between atoms: _192  and  _194
REMARK   85  A    between atoms: _194  and  _195
REMARK   86  A    between atoms: _194  and  _197
REMARK   87  A    between atoms: _197  and  _198
REMARK   88  A    between atoms: _201  and  _203
REMARK   89  A    between atoms: _203  and  _204
REMARK   90  A    between atoms: _207  and  _209
REMARK   91  A    between atoms: _209  and  _210
REMARK   92  A    between atoms: _209  and  _212
REMARK   93  A    between atoms: _212  and  _213
REMARK   94  A    between atoms: _219  and  _221
REMARK   95  A    between atoms: _221  and  _222
REMARK   96  A    between atoms: _221  and  _224
REMARK   97  A    between atoms: _224  and  _225
REMARK   98  A    between atoms: _228  and  _230
REMARK   99  A    between atoms: _230  and  _231
REMARK  100  A    between atoms: _230  and  _233
REMARK  101  A    between atoms: _233  and  _234
REMARK  102  A    between atoms: _239  and  _241
REMARK  103  A    between atoms: _241  and  _242
REMARK  104  A    between atoms: _244  and  _246
REMARK  105  A    between atoms: _246  and  _247
REMARK  106  A    between atoms: _246  and  _249
REMARK  107  A    between atoms: _249  and  _250
REMARK  108  A    between atoms: _253  and  _255
REMARK  109  A    between atoms: _255  and  _256
REMARK  110  A    between atoms: _255  and  _258
REMARK  111  A    between atoms: _258  and  _259
REMARK  112  A    between atoms: _262  and  _264
REMARK  113  A    between atoms: _264  and  _265
REMARK  114  A    between atoms: _268  and  _270
REMARK  115  A    between atoms: _270  and  _271
REMARK  116  A    between atoms: _270  and  _273
REMARK  117  A    between atoms: _276  and  _278
REMARK  118  A    between atoms: _278  and  _279
REMARK  119  A    between atoms: _278  and  _281
REMARK  120  A    between atoms: _281  and  _282
REMARK  121  A    between atoms: _282  and  _283
REMARK  122  A    between atoms: _286  and  _288
REMARK  123  A    between atoms: _288  and  _289
REMARK  124  A    between atoms: _288  and  _291
REMARK  125  A    between atoms: _291  and  _292
REMARK  126  A    between atoms: _292  and  _293
REMARK  127  A    between atoms: _295  and  _297
REMARK  128  A    between atoms: _297  and  _298
REMARK  129  A    between atoms: _297  and  _300
REMARK  130  A    between atoms: _300  and  _301
REMARK  131  A    between atoms: _301  and  _302
REMARK  132  A    between atoms: _305  and  _307
REMARK  133  A    between atoms: _307  and  _308
REMARK  134  A    between atoms: _311  and  _313
REMARK  135  A    between atoms: _313  and  _314
REMARK  136  A    between atoms: _313  and  _316
REMARK  137  A    between atoms: _316  and  _317
REMARK  138  A    between atoms: _320  and  _322
REMARK  139  A    between atoms: _322  and  _323
REMARK  140  A    between atoms: _322  and  _325
REMARK  141  A    between atoms: _325  and  _326
REMARK  142  A    between atoms: _329  and  _331
REMARK  143  A    between atoms: _331  and  _332
REMARK  144  A    between atoms: _331  and  _334
REMARK  145  A    between atoms: _334  and  _335
REMARK  146  A    between atoms: _335  and  _336
REMARK  147  A    between atoms: _336  and  _337
REMARK  148  A    between atoms: _346  and  _348
REMARK  149  A    between atoms: _348  and  _349
REMARK  150  A    between atoms: _352  and  _354
REMARK  151  A    between atoms: _354  and  _355
REMARK  152  A    between atoms: _354  and  _357
REMARK  153  A    between atoms: _357  and  _358
REMARK  154  A    between atoms: _361  and  _363
REMARK  155  A    between atoms: _363  and  _364
REMARK  156  A    between atoms: _363  and  _366
REMARK  157  A    between atoms: _366  and  _367
REMARK  158  A    between atoms: _369  and  _371
REMARK  159  A    between atoms: _371  and  _372
REMARK  160  A    between atoms: _371  and  _374
REMARK  161  A    between atoms: _374  and  _375
REMARK  162  A    between atoms: _378  and  _380
REMARK  163  A    between atoms: _380  and  _381
REMARK  164  A    between atoms: _380  and  _383
REMARK  165  A    between atoms: _386  and  _388
REMARK  166  A    between atoms: _388  and  _389
REMARK  167  A    between atoms: _392  and  _394
REMARK  168  A    between atoms: _394  and  _395
REMARK  169  A    between atoms: _394  and  _397
REMARK  170  A    between atoms: _397  and  _398
REMARK  171  A    between atoms: _401  and  _403
REMARK  172  A    between atoms: _403  and  _404
REMARK  173  A    between atoms: _403  and  _406
REMARK  174  A    between atoms: _406  and  _407
REMARK  175  A    between atoms: _409  and  _411
REMARK  176  A    between atoms: _411  and  _412
REMARK  177  A    between atoms: _411  and  _414
REMARK  178  A    between atoms: _414  and  _415
REMARK  179  A    between atoms: _420  and  _422
REMARK  180  A    between atoms: _422  and  _423
REMARK  181  A    between atoms: _422  and  _425
REMARK  182  A    between atoms: _425  and  _426
REMARK  183  A    between atoms: _428  and  _430
REMARK  184  A    between atoms: _430  and  _431
REMARK  185  A    between atoms: _430  and  _433
REMARK  186  A    between atoms: _433  and  _434
REMARK  187  A    between atoms: _440  and  _442
REMARK  188  A    between atoms: _442  and  _443
REMARK  189  A    between atoms: _442  and  _445
REMARK  190  A    between atoms: _445  and  _446
REMARK  191  A    between atoms: _449  and  _451
REMARK  192  A    between atoms: _451  and  _452
REMARK  193  A    between atoms: _451  and  _454
REMARK  194  A    between atoms: _454  and  _455
REMARK  195  A    between atoms: _458  and  _460
REMARK  196  A    between atoms: _460  and  _461
REMARK  197  A    between atoms: _464  and  _466
REMARK  198  A    between atoms: _466  and  _467
REMARK  199  A    between atoms: _466  and  _469
REMARK  200  A    between atoms: _469  and  _470
REMARK  201  A    between atoms: _473  and  _475
REMARK  202  A    between atoms: _475  and  _476
REMARK  203  A    between atoms: _475  and  _478
REMARK  204  A    between atoms: _481  and  _483
REMARK  205  A    between atoms: _483  and  _484
REMARK  206  A    between atoms: _487  and  _489
REMARK  207  A    between atoms: _489  and  _490
REMARK  208  A    between atoms: _489  and  _492
REMARK  209  A    between atoms: _492  and  _493
REMARK  210  A    between atoms: _499  and  _501
REMARK  211  A    between atoms: _501  and  _502
REMARK  212  A    between atoms: _501  and  _504
REMARK  213  A    between atoms: _504  and  _505
REMARK  214  A    between atoms: _510  and  _511
REMARK  215  A    between atoms: _513  and  _515
REMARK  216  A    between atoms: _515  and  _516
REMARK  217  A    between atoms: _515  and  _518
REMARK  218  A    between atoms: _518  and  _519
REMARK  219  A    between atoms: _523  and  _524
REMARK                            x       y       z     vdW  Elec       q    Type
REMARK                         _______ _______ _______ _____ _____    ______ ____
ROOT
ATOM      1  O   HOH     1      51.064  71.672  10.807  0.00  0.00    +0.000 OA
ENDROOT
TORSDOF 0
REMARK  Name = ../refined-set-2016/1nc1/1nc1_pocket.pdb
REMARK  219 active torsions:
REMARK  status: ('A' for Active; 'I' for Inactive)
REMARK    1  A    between atoms: _1  and  _3
REMARK    2  A    between atoms: _3  and  _4
REMARK    3  A    between atoms: _6  and  _8
REMARK    4  A    between atoms: _8  and  _9
REMARK    5  A    between atoms: _12  and  _14
REMARK    6  A    between atoms: _14  and  _15
REMARK    7  A    between atoms: _14  and  _17
REMARK    8  A    between atoms: _17  and  _18
REMARK    9  A    between atoms: _18  and  _19
REMARK   10  A    between atoms: _21  and  _23
REMARK   11  A    between atoms: _23  and  _24
REMARK   12  A    between atoms: _23  and  _26
REMARK   13  A    between atoms: _26  and  _27
REMARK   14  A    between atoms: _27  and  _28
REMARK   15  A    between atoms: _31  and  _33
REMARK   16  A    between atoms: _33  and  _34
REMARK   17  A    between atoms: _33  and  _36
REMARK   18  A    between atoms: _36  and  _37
REMARK   19  A    between atoms: _37  and  _38
REMARK   20  A    between atoms: _41  and  _43
REMARK   21  A    between atoms: _43  and  _44
REMARK   22  A    between atoms: _43  and  _46
REMARK   23  A    between atoms: _46  and  _47
REMARK   24  A    between atoms: _49  and  _51
REMARK   25  A    between atoms: _51  and  _52
REMARK   26  A    between atoms: _54  and  _56
REMARK   27  A    between atoms: _56  and  _57
REMARK   28  A    between atoms: _56  and  _59
REMARK   29  A    between atoms: _59  and  _60
REMARK   30  A    between atoms: _63  and  _65
REMARK   31  A    between atoms: _65  and  _66
REMARK   32  A    between atoms: _68  and  _70
REMARK   33  A    between atoms: _70  and  _71
REMARK   34  A    between atoms: _70  and  _73
REMARK   35  A    between atoms: _73  and  _74
REMARK   36  A    between atoms: _74  and  _75
REMARK   37  A    between atoms: _75  and  _76
REMARK   38  A    between atoms: _76  and  _77
REMARK   39  A    between atoms: _81  and  _83
REMARK   40  A    between atoms: _83  and  _84
REMARK   41  A    between atoms: _87  and  _89
REMARK   42  A    between atoms: _89  and  _90
REMARK   43  A    between atoms: _93  and  _95
REMARK   44  A    between atoms: _95  and  _96
REMARK   45  A    between atoms: _95  and  _98
REMARK   46  A    between atoms: _98  and  _99
REMARK   47  A    between atoms: _104  and  _106
REMARK   48  A    between atoms: _106  and  _107
REMARK   49  A    between atoms: _106  and  _109
REMARK   50  A    between atoms: _109  and  _110
REMARK   51  A    between atoms: _113  and  _115
REMARK   52  A    between atoms: _115  and  _116
REMARK   53  A    between atoms: _118  and  _120
REMARK   54  A    between atoms: _120  and  _121
REMARK   55  A    between atoms: _120  and  _123
REMARK   56  A    between atoms: _123  and  _124
REMARK   57  A    between atoms: _126  and  _128
REMARK   58  A    between atoms: _128  and  _129
REMARK   59  A    between atoms: _132  and  _134
REMARK   60  A    between atoms: _134  and  _135
REMARK   61  A    between atoms: _137  and  _139
REMARK   62  A    between atoms: _139  and  _140
REMARK   63  A    between atoms: _142  and  _144
REMARK   64  A    between atoms: _144  and  _145
REMARK   65  A    between atoms: _144  and  _147
REMARK   66  A    between atoms: _147  and  _148
REMARK   67  A    between atoms: _151  and  _153
REMARK   68  A    between atoms: _153  and  _154
REMARK   69  A    between atoms: _153  and  _156
REMARK   70  A    between atoms: _156  and  _157
REMARK   71  A    between atoms: _162  and  _164
REMARK   72  A    between atoms: _164  and  _165
REMARK   73  A    between atoms: _164  and  _167
REMARK   74  A    between atoms: _167  and  _168
REMARK   75  A    between atoms: _171  and  _173
REMARK   76  A    between atoms: _173  and  _174
REMARK   77  A    between atoms: _173  and  _176
REMARK   78  A    between atoms: _179  and  _181
REMARK   79  A    between atoms: _181  and  _182
REMARK   80  A    between atoms: _181  and  _184
REMARK   81  A    between atoms: _184  and  _185
REMARK   82  A    between atoms: _187  and  _189
REMARK   83  A    between atoms: _189  and  _190
REMARK   84  A    between atoms: _192  and  _194
REMARK   85  A    between atoms: _194  and  _195
REMARK   86  A    between atoms: _194  and  _197
REMARK   87  A    between atoms: _197  and  _198
REMARK   88  A    between atoms: _201  and  _203
REMARK   89  A    between atoms: _203  and  _204
REMARK   90  A    between atoms: _207  and  _209
REMARK   91  A    between atoms: _209  and  _210
REMARK   92  A    between atoms: _209  and  _212
REMARK   93  A    between atoms: _212  and  _213
REMARK   94  A    between atoms: _219  and  _221
REMARK   95  A    between atoms: _221  and  _222
REMARK   96  A    between atoms: _221  and  _224
REMARK   97  A    between atoms: _224  and  _225
REMARK   98  A    between atoms: _228  and  _230
REMARK   99  A    between atoms: _230  and  _231
REMARK  100  A    between atoms: _230  and  _233
REMARK  101  A    between atoms: _233  and  _234
REMARK  102  A    between atoms: _239  and  _241
REMARK  103  A    between atoms: _241  and  _242
REMARK  104  A    between atoms: _244  and  _246
REMARK  105  A    between atoms: _246  and  _247
REMARK  106  A    between atoms: _246  and  _249
REMARK  107  A    between atoms: _249  and  _250
REMARK  108  A    between atoms: _253  and  _255
REMARK  109  A    between atoms: _255  and  _256
REMARK  110  A    between atoms: _255  and  _258
REMARK  111  A    between atoms: _258  and  _259
REMARK  112  A    between atoms: _262  and  _264
REMARK  113  A    between atoms: _264  and  _265
REMARK  114  A    between atoms: _268  and  _270
REMARK  115  A    between atoms: _270  and  _271
REMARK  116  A    between atoms: _270  and  _273
REMARK  117  A    between atoms: _276  and  _278
REMARK  118  A    between atoms: _278  and  _279
REMARK  119  A    between atoms: _278  and  _281
REMARK  120  A    between atoms: _281  and  _282
REMARK  121  A    between atoms: _282  and  _283
REMARK  122  A    between atoms: _286  and  _288
REMARK  123  A    between atoms: _288  and  _289
REMARK  124  A    between atoms: _288  and  _291
REMARK  125  A    between atoms: _291  and  _292
REMARK  126  A    between atoms: _292  and  _293
REMARK  127  A    between atoms: _295  and  _297
REMARK  128  A    between atoms: _297  and  _298
REMARK  129  A    between atoms: _297  and  _300
REMARK  130  A    between atoms: _300  and  _301
REMARK  131  A    between atoms: _301  and  _302
REMARK  132  A    between atoms: _305  and  _307
REMARK  133  A    between atoms: _307  and  _308
REMARK  134  A    between atoms: _311  and  _313
REMARK  135  A    between atoms: _313  and  _314
REMARK  136  A    between atoms: _313  and  _316
REMARK  137  A    between atoms: _316  and  _317
REMARK  138  A    between atoms: _320  and  _322
REMARK  139  A    between atoms: _322  and  _323
REMARK  140  A    between atoms: _322  and  _325
REMARK  141  A    between atoms: _325  and  _326
REMARK  142  A    between atoms: _329  and  _331
REMARK  143  A    between atoms: _331  and  _332
REMARK  144  A    between atoms: _331  and  _334
REMARK  145  A    between atoms: _334  and  _335
REMARK  146  A    between atoms: _335  and  _336
REMARK  147  A    between atoms: _336  and  _337
REMARK  148  A    between atoms: _346  and  _348
REMARK  149  A    between atoms: _348  and  _349
REMARK  150  A    between atoms: _352  and  _354
REMARK  151  A    between atoms: _354  and  _355
REMARK  152  A    between atoms: _354  and  _357
REMARK  153  A    between atoms: _357  and  _358
REMARK  154  A    between atoms: _361  and  _363
REMARK  155  A    between atoms: _363  and  _364
REMARK  156  A    between atoms: _363  and  _366
REMARK  157  A    between atoms: _366  and  _367
REMARK  158  A    between atoms: _369  and  _371
REMARK  159  A    between atoms: _371  and  _372
REMARK  160  A    between atoms: _371  and  _374
REMARK  161  A    between atoms: _374  and  _375
REMARK  162  A    between atoms: _378  and  _380
REMARK  163  A    between atoms: _380  and  _381
REMARK  164  A    between atoms: _380  and  _383
REMARK  165  A    between atoms: _386  and  _388
REMARK  166  A    between atoms: _388  and  _389
REMARK  167  A    between atoms: _392  and  _394
REMARK  168  A    between atoms: _394  and  _395
REMARK  169  A    between atoms: _394  and  _397
REMARK  170  A    between atoms: _397  and  _398
REMARK  171  A    between atoms: _401  and  _403
REMARK  172  A    between atoms: _403  and  _404
REMARK  173  A    between atoms: _403  and  _406
REMARK  174  A    between atoms: _406  and  _407
REMARK  175  A    between atoms: _409  and  _411
REMARK  176  A    between atoms: _411  and  _412
REMARK  177  A    between atoms: _411  and  _414
REMARK  178  A    between atoms: _414  and  _415
REMARK  179  A    between atoms: _420  and  _422
REMARK  180  A    between atoms: _422  and  _423
REMARK  181  A    between atoms: _422  and  _425
REMARK  182  A    between atoms: _425  and  _426
REMARK  183  A    between atoms: _428  and  _430
REMARK  184  A    between atoms: _430  and  _431
REMARK  185  A    between atoms: _430  and  _433
REMARK  186  A    between atoms: _433  and  _434
REMARK  187  A    between atoms: _440  and  _442
REMARK  188  A    between atoms: _442  and  _443
REMARK  189  A    between atoms: _442  and  _445
REMARK  190  A    between atoms: _445  and  _446
REMARK  191  A    between atoms: _449  and  _451
REMARK  192  A    between atoms: _451  and  _452
REMARK  193  A    between atoms: _451  and  _454
REMARK  194  A    between atoms: _454  and  _455
REMARK  195  A    between atoms: _458  and  _460
REMARK  196  A    between atoms: _460  and  _461
REMARK  197  A    between atoms: _464  and  _466
REMARK  198  A    between atoms: _466  and  _467
REMARK  199  A    between atoms: _466  and  _469
REMARK  200  A    between atoms: _469  and  _470
REMARK  201  A    between atoms: _473  and  _475
REMARK  202  A    between atoms: _475  and  _476
REMARK  203  A    between atoms: _475  and  _478
REMARK  204  A    between atoms: _481  and  _483
REMARK  205  A    between atoms: _483  and  _484
REMARK  206  A    between atoms: _487  and  _489
REMARK  207  A    between atoms: _489  and  _490
REMARK  208  A    between atoms: _489  and  _492
REMARK  209  A    between atoms: _492  and  _493
REMARK  210  A    between atoms: _499  and  _501
REMARK  211  A    between atoms: _501  and  _502
REMARK  212  A    between atoms: _501  and  _504
REMARK  213  A    between atoms: _504  and  _505
REMARK  214  A    between atoms: _510  and  _511
REMARK  215  A    between atoms: _513  and  _515
REMARK  216  A    between atoms: _515  and  _516
REMARK  217  A    between atoms: _515  and  _518
REMARK  218  A    between atoms: _518  and  _519
REMARK  219  A    between atoms: _523  and  _524
REMARK                            x       y       z     vdW  Elec       q    Type
REMARK                         _______ _______ _______ _____ _____    ______ ____
ROOT
ATOM      1  O   HOH     1      60.267  68.223  29.150  0.00  0.00    +0.000 OA
ENDROOT
TORSDOF 0
REMARK  Name = ../refined-set-2016/1nc1/1nc1_pocket.pdb
REMARK  219 active torsions:
REMARK  status: ('A' for Active; 'I' for Inactive)
REMARK    1  A    between atoms: _1  and  _3
REMARK    2  A    between atoms: _3  and  _4
REMARK    3  A    between atoms: _6  and  _8
REMARK    4  A    between atoms: _8  and  _9
REMARK    5  A    between atoms: _12  and  _14
REMARK    6  A    between atoms: _14  and  _15
REMARK    7  A    between atoms: _14  and  _17
REMARK    8  A    between atoms: _17  and  _18
REMARK    9  A    between atoms: _18  and  _19
REMARK   10  A    between atoms: _21  and  _23
REMARK   11  A    between atoms: _23  and  _24
REMARK   12  A    between atoms: _23  and  _26
REMARK   13  A    between atoms: _26  and  _27
REMARK   14  A    between atoms: _27  and  _28
REMARK   15  A    between atoms: _31  and  _33
REMARK   16  A    between atoms: _33  and  _34
REMARK   17  A    between atoms: _33  and  _36
REMARK   18  A    between atoms: _36  and  _37
REMARK   19  A    between atoms: _37  and  _38
REMARK   20  A    between atoms: _41  and  _43
REMARK   21  A    between atoms: _43  and  _44
REMARK   22  A    between atoms: _43  and  _46
REMARK   23  A    between atoms: _46  and  _47
REMARK   24  A    between atoms: _49  and  _51
REMARK   25  A    between atoms: _51  and  _52
REMARK   26  A    between atoms: _54  and  _56
REMARK   27  A    between atoms: _56  and  _57
REMARK   28  A    between atoms: _56  and  _59
REMARK   29  A    between atoms: _59  and  _60
REMARK   30  A    between atoms: _63  and  _65
REMARK   31  A    between atoms: _65  and  _66
REMARK   32  A    between atoms: _68  and  _70
REMARK   33  A    between atoms: _70  and  _71
REMARK   34  A    between atoms: _70  and  _73
REMARK   35  A    between atoms: _73  and  _74
REMARK   36  A    between atoms: _74  and  _75
REMARK   37  A    between atoms: _75  and  _76
REMARK   38  A    between atoms: _76  and  _77
REMARK   39  A    between atoms: _81  and  _83
REMARK   40  A    between atoms: _83  and  _84
REMARK   41  A    between atoms: _87  and  _89
REMARK   42  A    between atoms: _89  and  _90
REMARK   43  A    between atoms: _93  and  _95
REMARK   44  A    between atoms: _95  and  _96
REMARK   45  A    between atoms: _95  and  _98
REMARK   46  A    between atoms: _98  and  _99
REMARK   47  A    between atoms: _104  and  _106
REMARK   48  A    between atoms: _106  and  _107
REMARK   49  A    between atoms: _106  and  _109
REMARK   50  A    between atoms: _109  and  _110
REMARK   51  A    between atoms: _113  and  _115
REMARK   52  A    between atoms: _115  and  _116
REMARK   53  A    between atoms: _118  and  _120
REMARK   54  A    between atoms: _120  and  _121
REMARK   55  A    between atoms: _120  and  _123
REMARK   56  A    between atoms: _123  and  _124
REMARK   57  A    between atoms: _126  and  _128
REMARK   58  A    between atoms: _128  and  _129
REMARK   59  A    between atoms: _132  and  _134
REMARK   60  A    between atoms: _134  and  _135
REMARK   61  A    between atoms: _137  and  _139
REMARK   62  A    between atoms: _139  and  _140
REMARK   63  A    between atoms: _142  and  _144
REMARK   64  A    between atoms: _144  and  _145
REMARK   65  A    between atoms: _144  and  _147
REMARK   66  A    between atoms: _147  and  _148
REMARK   67  A    between atoms: _151  and  _153
REMARK   68  A    between atoms: _153  and  _154
REMARK   69  A    between atoms: _153  and  _156
REMARK   70  A    between atoms: _156  and  _157
REMARK   71  A    between atoms: _162  and  _164
REMARK   72  A    between atoms: _164  and  _165
REMARK   73  A    between atoms: _164  and  _167
REMARK   74  A    between atoms: _167  and  _168
REMARK   75  A    between atoms: _171  and  _173
REMARK   76  A    between atoms: _173  and  _174
REMARK   77  A    between atoms: _173  and  _176
REMARK   78  A    between atoms: _179  and  _181
REMARK   79  A    between atoms: _181  and  _182
REMARK   80  A    between atoms: _181  and  _184
REMARK   81  A    between atoms: _184  and  _185
REMARK   82  A    between atoms: _187  and  _189
REMARK   83  A    between atoms: _189  and  _190
REMARK   84  A    between atoms: _192  and  _194
REMARK   85  A    between atoms: _194  and  _195
REMARK   86  A    between atoms: _194  and  _197
REMARK   87  A    between atoms: _197  and  _198
REMARK   88  A    between atoms: _201  and  _203
REMARK   89  A    between atoms: _203  and  _204
REMARK   90  A    between atoms: _207  and  _209
REMARK   91  A    between atoms: _209  and  _210
REMARK   92  A    between atoms: _209  and  _212
REMARK   93  A    between atoms: _212  and  _213
REMARK   94  A    between atoms: _219  and  _221
REMARK   95  A    between atoms: _221  and  _222
REMARK   96  A    between atoms: _221  and  _224
REMARK   97  A    between atoms: _224  and  _225
REMARK   98  A    between atoms: _228  and  _230
REMARK   99  A    between atoms: _230  and  _231
REMARK  100  A    between atoms: _230  and  _233
REMARK  101  A    between atoms: _233  and  _234
REMARK  102  A    between atoms: _239  and  _241
REMARK  103  A    between atoms: _241  and  _242
REMARK  104  A    between atoms: _244  and  _246
REMARK  105  A    between atoms: _246  and  _247
REMARK  106  A    between atoms: _246  and  _249
REMARK  107  A    between atoms: _249  and  _250
REMARK  108  A    between atoms: _253  and  _255
REMARK  109  A    between atoms: _255  and  _256
REMARK  110  A    between atoms: _255  and  _258
REMARK  111  A    between atoms: _258  and  _259
REMARK  112  A    between atoms: _262  and  _264
REMARK  113  A    between atoms: _264  and  _265
REMARK  114  A    between atoms: _268  and  _270
REMARK  115  A    between atoms: _270  and  _271
REMARK  116  A    between atoms: _270  and  _273
REMARK  117  A    between atoms: _276  and  _278
REMARK  118  A    between atoms: _278  and  _279
REMARK  119  A    between atoms: _278  and  _281
REMARK  120  A    between atoms: _281  and  _282
REMARK  121  A    between atoms: _282  and  _283
REMARK  122  A    between atoms: _286  and  _288
REMARK  123  A    between atoms: _288  and  _289
REMARK  124  A    between atoms: _288  and  _291
REMARK  125  A    between atoms: _291  and  _292
REMARK  126  A    between atoms: _292  and  _293
REMARK  127  A    between atoms: _295  and  _297
REMARK  128  A    between atoms: _297  and  _298
REMARK  129  A    between atoms: _297  and  _300
REMARK  130  A    between atoms: _300  and  _301
REMARK  131  A    between atoms: _301  and  _302
REMARK  132  A    between atoms: _305  and  _307
REMARK  133  A    between atoms: _307  and  _308
REMARK  134  A    between atoms: _311  and  _313
REMARK  135  A    between atoms: _313  and  _314
REMARK  136  A    between atoms: _313  and  _316
REMARK  137  A    between atoms: _316  and  _317
REMARK  138  A    between atoms: _320  and  _322
REMARK  139  A    between atoms: _322  and  _323
REMARK  140  A    between atoms: _322  and  _325
REMARK  141  A    between atoms: _325  and  _326
REMARK  142  A    between atoms: _329  and  _331
REMARK  143  A    between atoms: _331  and  _332
REMARK  144  A    between atoms: _331  and  _334
REMARK  145  A    between atoms: _334  and  _335
REMARK  146  A    between atoms: _335  and  _336
REMARK  147  A    between atoms: _336  and  _337
REMARK  148  A    between atoms: _346  and  _348
REMARK  149  A    between atoms: _348  and  _349
REMARK  150  A    between atoms: _352  and  _354
REMARK  151  A    between atoms: _354  and  _355
REMARK  152  A    between atoms: _354  and  _357
REMARK  153  A    between atoms: _357  and  _358
REMARK  154  A    between atoms: _361  and  _363
REMARK  155  A    between atoms: _363  and  _364
REMARK  156  A    between atoms: _363  and  _366
REMARK  157  A    between atoms: _366  and  _367
REMARK  158  A    between atoms: _369  and  _371
REMARK  159  A    between atoms: _371  and  _372
REMARK  160  A    between atoms: _371  and  _374
REMARK  161  A    between atoms: _374  and  _375
REMARK  162  A    between atoms: _378  and  _380
REMARK  163  A    between atoms: _380  and  _381
REMARK  164  A    between atoms: _380  and  _383
REMARK  165  A    between atoms: _386  and  _388
REMARK  166  A    between atoms: _388  and  _389
REMARK  167  A    between atoms: _392  and  _394
REMARK  168  A    between atoms: _394  and  _395
REMARK  169  A    between atoms: _394  and  _397
REMARK  170  A    between atoms: _397  and  _398
REMARK  171  A    between atoms: _401  and  _403
REMARK  172  A    between atoms: _403  and  _404
REMARK  173  A    between atoms: _403  and  _406
REMARK  174  A    between atoms: _406  and  _407
REMARK  175  A    between atoms: _409  and  _411
REMARK  176  A    between atoms: _411  and  _412
REMARK  177  A    between atoms: _411  and  _414
REMARK  178  A    between atoms: _414  and  _415
REMARK  179  A    between atoms: _420  and  _422
REMARK  180  A    between atoms: _422  and  _423
REMARK  181  A    between atoms: _422  and  _425
REMARK  182  A    between atoms: _425  and  _426
REMARK  183  A    between atoms: _428  and  _430
REMARK  184  A    between atoms: _430  and  _431
REMARK  185  A    between atoms: _430  and  _433
REMARK  186  A    between atoms: _433  and  _434
REMARK  187  A    between atoms: _440  and  _442
REMARK  188  A    between atoms: _442  and  _443
REMARK  189  A    between atoms: _442  and  _445
REMARK  190  A    between atoms: _445  and  _446
REMARK  191  A    between atoms: _449  and  _451
REMARK  192  A    between atoms: _451  and  _452
REMARK  193  A    between atoms: _451  and  _454
REMARK  194  A    between atoms: _454  and  _455
REMARK  195  A    between atoms: _458  and  _460
REMARK  196  A    between atoms: _460  and  _461
REMARK  197  A    between atoms: _464  and  _466
REMARK  198  A    between atoms: _466  and  _467
REMARK  199  A    between atoms: _466  and  _469
REMARK  200  A    between atoms: _469  and  _470
REMARK  201  A    between atoms: _473  and  _475
REMARK  202  A    between atoms: _475  and  _476
REMARK  203  A    between atoms: _475  and  _478
REMARK  204  A    between atoms: _481  and  _483
REMARK  205  A    between atoms: _483  and  _484
REMARK  206  A    between atoms: _487  and  _489
REMARK  207  A    between atoms: _489  and  _490
REMARK  208  A    between atoms: _489  and  _492
REMARK  209  A    between atoms: _492  and  _493
REMARK  210  A    between atoms: _499  and  _501
REMARK  211  A    between atoms: _501  and  _502
REMARK  212  A    between atoms: _501  and  _504
REMARK  213  A    between atoms: _504  and  _505
REMARK  214  A    between atoms: _510  and  _511
REMARK  215  A    between atoms: _513  and  _515
REMARK  216  A    between atoms: _515  and  _516
REMARK  217  A    between atoms: _515  and  _518
REMARK  218  A    between atoms: _518  and  _519
REMARK  219  A    between atoms: _523  and  _524
REMARK                            x       y       z     vdW  Elec       q    Type
REMARK                         _______ _______ _______ _____ _____    ______ ____
ROOT
ATOM      1  O   HOH     1      63.647  67.565  27.339  0.00  0.00    +0.000 OA
ENDROOT
TORSDOF 0
REMARK  Name = ../refined-set-2016/1nc1/1nc1_pocket.pdb
REMARK  219 active torsions:
REMARK  status: ('A' for Active; 'I' for Inactive)
REMARK    1  A    between atoms: _1  and  _3
REMARK    2  A    between atoms: _3  and  _4
REMARK    3  A    between atoms: _6  and  _8
REMARK    4  A    between atoms: _8  and  _9
REMARK    5  A    between atoms: _12  and  _14
REMARK    6  A    between atoms: _14  and  _15
REMARK    7  A    between atoms: _14  and  _17
REMARK    8  A    between atoms: _17  and  _18
REMARK    9  A    between atoms: _18  and  _19
REMARK   10  A    between atoms: _21  and  _23
REMARK   11  A    between atoms: _23  and  _24
REMARK   12  A    between atoms: _23  and  _26
REMARK   13  A    between atoms: _26  and  _27
REMARK   14  A    between atoms: _27  and  _28
REMARK   15  A    between atoms: _31  and  _33
REMARK   16  A    between atoms: _33  and  _34
REMARK   17  A    between atoms: _33  and  _36
REMARK   18  A    between atoms: _36  and  _37
REMARK   19  A    between atoms: _37  and  _38
REMARK   20  A    between atoms: _41  and  _43
REMARK   21  A    between atoms: _43  and  _44
REMARK   22  A    between atoms: _43  and  _46
REMARK   23  A    between atoms: _46  and  _47
REMARK   24  A    between atoms: _49  and  _51
REMARK   25  A    between atoms: _51  and  _52
REMARK   26  A    between atoms: _54  and  _56
REMARK   27  A    between atoms: _56  and  _57
REMARK   28  A    between atoms: _56  and  _59
REMARK   29  A    between atoms: _59  and  _60
REMARK   30  A    between atoms: _63  and  _65
REMARK   31  A    between atoms: _65  and  _66
REMARK   32  A    between atoms: _68  and  _70
REMARK   33  A    between atoms: _70  and  _71
REMARK   34  A    between atoms: _70  and  _73
REMARK   35  A    between atoms: _73  and  _74
REMARK   36  A    between atoms: _74  and  _75
REMARK   37  A    between atoms: _75  and  _76
REMARK   38  A    between atoms: _76  and  _77
REMARK   39  A    between atoms: _81  and  _83
REMARK   40  A    between atoms: _83  and  _84
REMARK   41  A    between atoms: _87  and  _89
REMARK   42  A    between atoms: _89  and  _90
REMARK   43  A    between atoms: _93  and  _95
REMARK   44  A    between atoms: _95  and  _96
REMARK   45  A    between atoms: _95  and  _98
REMARK   46  A    between atoms: _98  and  _99
REMARK   47  A    between atoms: _104  and  _106
REMARK   48  A    between atoms: _106  and  _107
REMARK   49  A    between atoms: _106  and  _109
REMARK   50  A    between atoms: _109  and  _110
REMARK   51  A    between atoms: _113  and  _115
REMARK   52  A    between atoms: _115  and  _116
REMARK   53  A    between atoms: _118  and  _120
REMARK   54  A    between atoms: _120  and  _121
REMARK   55  A    between atoms: _120  and  _123
REMARK   56  A    between atoms: _123  and  _124
REMARK   57  A    between atoms: _126  and  _128
REMARK   58  A    between atoms: _128  and  _129
REMARK   59  A    between atoms: _132  and  _134
REMARK   60  A    between atoms: _134  and  _135
REMARK   61  A    between atoms: _137  and  _139
REMARK   62  A    between atoms: _139  and  _140
REMARK   63  A    between atoms: _142  and  _144
REMARK   64  A    between atoms: _144  and  _145
REMARK   65  A    between atoms: _144  and  _147
REMARK   66  A    between atoms: _147  and  _148
REMARK   67  A    between atoms: _151  and  _153
REMARK   68  A    between atoms: _153  and  _154
REMARK   69  A    between atoms: _153  and  _156
REMARK   70  A    between atoms: _156  and  _157
REMARK   71  A    between atoms: _162  and  _164
REMARK   72  A    between atoms: _164  and  _165
REMARK   73  A    between atoms: _164  and  _167
REMARK   74  A    between atoms: _167  and  _168
REMARK   75  A    between atoms: _171  and  _173
REMARK   76  A    between atoms: _173  and  _174
REMARK   77  A    between atoms: _173  and  _176
REMARK   78  A    between atoms: _179  and  _181
REMARK   79  A    between atoms: _181  and  _182
REMARK   80  A    between atoms: _181  and  _184
REMARK   81  A    between atoms: _184  and  _185
REMARK   82  A    between atoms: _187  and  _189
REMARK   83  A    between atoms: _189  and  _190
REMARK   84  A    between atoms: _192  and  _194
REMARK   85  A    between atoms: _194  and  _195
REMARK   86  A    between atoms: _194  and  _197
REMARK   87  A    between atoms: _197  and  _198
REMARK   88  A    between atoms: _201  and  _203
REMARK   89  A    between atoms: _203  and  _204
REMARK   90  A    between atoms: _207  and  _209
REMARK   91  A    between atoms: _209  and  _210
REMARK   92  A    between atoms: _209  and  _212
REMARK   93  A    between atoms: _212  and  _213
REMARK   94  A    between atoms: _219  and  _221
REMARK   95  A    between atoms: _221  and  _222
REMARK   96  A    between atoms: _221  and  _224
REMARK   97  A    between atoms: _224  and  _225
REMARK   98  A    between atoms: _228  and  _230
REMARK   99  A    between atoms: _230  and  _231
REMARK  100  A    between atoms: _230  and  _233
REMARK  101  A    between atoms: _233  and  _234
REMARK  102  A    between atoms: _239  and  _241
REMARK  103  A    between atoms: _241  and  _242
REMARK  104  A    between atoms: _244  and  _246
REMARK  105  A    between atoms: _246  and  _247
REMARK  106  A    between atoms: _246  and  _249
REMARK  107  A    between atoms: _249  and  _250
REMARK  108  A    between atoms: _253  and  _255
REMARK  109  A    between atoms: _255  and  _256
REMARK  110  A    between atoms: _255  and  _258
REMARK  111  A    between atoms: _258  and  _259
REMARK  112  A    between atoms: _262  and  _264
REMARK  113  A    between atoms: _264  and  _265
REMARK  114  A    between atoms: _268  and  _270
REMARK  115  A    between atoms: _270  and  _271
REMARK  116  A    between atoms: _270  and  _273
REMARK  117  A    between atoms: _276  and  _278
REMARK  118  A    between atoms: _278  and  _279
REMARK  119  A    between atoms: _278  and  _281
REMARK  120  A    between atoms: _281  and  _282
REMARK  121  A    between atoms: _282  and  _283
REMARK  122  A    between atoms: _286  and  _288
REMARK  123  A    between atoms: _288  and  _289
REMARK  124  A    between atoms: _288  and  _291
REMARK  125  A    between atoms: _291  and  _292
REMARK  126  A    between atoms: _292  and  _293
REMARK  127  A    between atoms: _295  and  _297
REMARK  128  A    between atoms: _297  and  _298
REMARK  129  A    between atoms: _297  and  _300
REMARK  130  A    between atoms: _300  and  _301
REMARK  131  A    between atoms: _301  and  _302
REMARK  132  A    between atoms: _305  and  _307
REMARK  133  A    between atoms: _307  and  _308
REMARK  134  A    between atoms: _311  and  _313
REMARK  135  A    between atoms: _313  and  _314
REMARK  136  A    between atoms: _313  and  _316
REMARK  137  A    between atoms: _316  and  _317
REMARK  138  A    between atoms: _320  and  _322
REMARK  139  A    between atoms: _322  and  _323
REMARK  140  A    between atoms: _322  and  _325
REMARK  141  A    between atoms: _325  and  _326
REMARK  142  A    between atoms: _329  and  _331
REMARK  143  A    between atoms: _331  and  _332
REMARK  144  A    between atoms: _331  and  _334
REMARK  145  A    between atoms: _334  and  _335
REMARK  146  A    between atoms: _335  and  _336
REMARK  147  A    between atoms: _336  and  _337
REMARK  148  A    between atoms: _346  and  _348
REMARK  149  A    between atoms: _348  and  _349
REMARK  150  A    between atoms: _352  and  _354
REMARK  151  A    between atoms: _354  and  _355
REMARK  152  A    between atoms: _354  and  _357
REMARK  153  A    between atoms: _357  and  _358
REMARK  154  A    between atoms: _361  and  _363
REMARK  155  A    between atoms: _363  and  _364
REMARK  156  A    between atoms: _363  and  _366
REMARK  157  A    between atoms: _366  and  _367
REMARK  158  A    between atoms: _369  and  _371
REMARK  159  A    between atoms: _371  and  _372
REMARK  160  A    between atoms: _371  and  _374
REMARK  161  A    between atoms: _374  and  _375
REMARK  162  A    between atoms: _378  and  _380
REMARK  163  A    between atoms: _380  and  _381
REMARK  164  A    between atoms: _380  and  _383
REMARK  165  A    between atoms: _386  and  _388
REMARK  166  A    between atoms: _388  and  _389
REMARK  167  A    between atoms: _392  and  _394
REMARK  168  A    between atoms: _394  and  _395
REMARK  169  A    between atoms: _394  and  _397
REMARK  170  A    between atoms: _397  and  _398
REMARK  171  A    between atoms: _401  and  _403
REMARK  172  A    between atoms: _403  and  _404
REMARK  173  A    between atoms: _403  and  _406
REMARK  174  A    between atoms: _406  and  _407
REMARK  175  A    between atoms: _409  and  _411
REMARK  176  A    between atoms: _411  and  _412
REMARK  177  A    between atoms: _411  and  _414
REMARK  178  A    between atoms: _414  and  _415
REMARK  179  A    between atoms: _420  and  _422
REMARK  180  A    between atoms: _422  and  _423
REMARK  181  A    between atoms: _422  and  _425
REMARK  182  A    between atoms: _425  and  _426
REMARK  183  A    between atoms: _428  and  _430
REMARK  184  A    between atoms: _430  and  _431
REMARK  185  A    between atoms: _430  and  _433
REMARK  186  A    between atoms: _433  and  _434
REMARK  187  A    between atoms: _440  and  _442
REMARK  188  A    between atoms: _442  and  _443
REMARK  189  A    between atoms: _442  and  _445
REMARK  190  A    between atoms: _445  and  _446
REMARK  191  A    between atoms: _449  and  _451
REMARK  192  A    between atoms: _451  and  _452
REMARK  193  A    between atoms: _451  and  _454
REMARK  194  A    between atoms: _454  and  _455
REMARK  195  A    between atoms: _458  and  _460
REMARK  196  A    between atoms: _460  and  _461
REMARK  197  A    between atoms: _464  and  _466
REMARK  198  A    between atoms: _466  and  _467
REMARK  199  A    between atoms: _466  and  _469
REMARK  200  A    between atoms: _469  and  _470
REMARK  201  A    between atoms: _473  and  _475
REMARK  202  A    between atoms: _475  and  _476
REMARK  203  A    between atoms: _475  and  _478
REMARK  204  A    between atoms: _481  and  _483
REMARK  205  A    between atoms: _483  and  _484
REMARK  206  A    between atoms: _487  and  _489
REMARK  207  A    between atoms: _489  and  _490
REMARK  208  A    between atoms: _489  and  _492
REMARK  209  A    between atoms: _492  and  _493
REMARK  210  A    between atoms: _499  and  _501
REMARK  211  A    between atoms: _501  and  _502
REMARK  212  A    between atoms: _501  and  _504
REMARK  213  A    between atoms: _504  and  _505
REMARK  214  A    between atoms: _510  and  _511
REMARK  215  A    between atoms: _513  and  _515
REMARK  216  A    between atoms: _515  and  _516
REMARK  217  A    between atoms: _515  and  _518
REMARK  218  A    between atoms: _518  and  _519
REMARK  219  A    between atoms: _523  and  _524
REMARK                            x       y       z     vdW  Elec       q    Type
REMARK                         _______ _______ _______ _____ _____    ______ ____
ROOT
ATOM      1  O   HOH     1      46.017  73.259  22.651  0.00  0.00    +0.000 OA
ENDROOT
TORSDOF 0
REMARK  Name = ../refined-set-2016/1nc1/1nc1_pocket.pdb
REMARK  219 active torsions:
REMARK  status: ('A' for Active; 'I' for Inactive)
REMARK    1  A    between atoms: _1  and  _3
REMARK    2  A    between atoms: _3  and  _4
REMARK    3  A    between atoms: _6  and  _8
REMARK    4  A    between atoms: _8  and  _9
REMARK    5  A    between atoms: _12  and  _14
REMARK    6  A    between atoms: _14  and  _15
REMARK    7  A    between atoms: _14  and  _17
REMARK    8  A    between atoms: _17  and  _18
REMARK    9  A    between atoms: _18  and  _19
REMARK   10  A    between atoms: _21  and  _23
REMARK   11  A    between atoms: _23  and  _24
REMARK   12  A    between atoms: _23  and  _26
REMARK   13  A    between atoms: _26  and  _27
REMARK   14  A    between atoms: _27  and  _28
REMARK   15  A    between atoms: _31  and  _33
REMARK   16  A    between atoms: _33  and  _34
REMARK   17  A    between atoms: _33  and  _36
REMARK   18  A    between atoms: _36  and  _37
REMARK   19  A    between atoms: _37  and  _38
REMARK   20  A    between atoms: _41  and  _43
REMARK   21  A    between atoms: _43  and  _44
REMARK   22  A    between atoms: _43  and  _46
REMARK   23  A    between atoms: _46  and  _47
REMARK   24  A    between atoms: _49  and  _51
REMARK   25  A    between atoms: _51  and  _52
REMARK   26  A    between atoms: _54  and  _56
REMARK   27  A    between atoms: _56  and  _57
REMARK   28  A    between atoms: _56  and  _59
REMARK   29  A    between atoms: _59  and  _60
REMARK   30  A    between atoms: _63  and  _65
REMARK   31  A    between atoms: _65  and  _66
REMARK   32  A    between atoms: _68  and  _70
REMARK   33  A    between atoms: _70  and  _71
REMARK   34  A    between atoms: _70  and  _73
REMARK   35  A    between atoms: _73  and  _74
REMARK   36  A    between atoms: _74  and  _75
REMARK   37  A    between atoms: _75  and  _76
REMARK   38  A    between atoms: _76  and  _77
REMARK   39  A    between atoms: _81  and  _83
REMARK   40  A    between atoms: _83  and  _84
REMARK   41  A    between atoms: _87  and  _89
REMARK   42  A    between atoms: _89  and  _90
REMARK   43  A    between atoms: _93  and  _95
REMARK   44  A    between atoms: _95  and  _96
REMARK   45  A    between atoms: _95  and  _98
REMARK   46  A    between atoms: _98  and  _99
REMARK   47  A    between atoms: _104  and  _106
REMARK   48  A    between atoms: _106  and  _107
REMARK   49  A    between atoms: _106  and  _109
REMARK   50  A    between atoms: _109  and  _110
REMARK   51  A    between atoms: _113  and  _115
REMARK   52  A    between atoms: _115  and  _116
REMARK   53  A    between atoms: _118  and  _120
REMARK   54  A    between atoms: _120  and  _121
REMARK   55  A    between atoms: _120  and  _123
REMARK   56  A    between atoms: _123  and  _124
REMARK   57  A    between atoms: _126  and  _128
REMARK   58  A    between atoms: _128  and  _129
REMARK   59  A    between atoms: _132  and  _134
REMARK   60  A    between atoms: _134  and  _135
REMARK   61  A    between atoms: _137  and  _139
REMARK   62  A    between atoms: _139  and  _140
REMARK   63  A    between atoms: _142  and  _144
REMARK   64  A    between atoms: _144  and  _145
REMARK   65  A    between atoms: _144  and  _147
REMARK   66  A    between atoms: _147  and  _148
REMARK   67  A    between atoms: _151  and  _153
REMARK   68  A    between atoms: _153  and  _154
REMARK   69  A    between atoms: _153  and  _156
REMARK   70  A    between atoms: _156  and  _157
REMARK   71  A    between atoms: _162  and  _164
REMARK   72  A    between atoms: _164  and  _165
REMARK   73  A    between atoms: _164  and  _167
REMARK   74  A    between atoms: _167  and  _168
REMARK   75  A    between atoms: _171  and  _173
REMARK   76  A    between atoms: _173  and  _174
REMARK   77  A    between atoms: _173  and  _176
REMARK   78  A    between atoms: _179  and  _181
REMARK   79  A    between atoms: _181  and  _182
REMARK   80  A    between atoms: _181  and  _184
REMARK   81  A    between atoms: _184  and  _185
REMARK   82  A    between atoms: _187  and  _189
REMARK   83  A    between atoms: _189  and  _190
REMARK   84  A    between atoms: _192  and  _194
REMARK   85  A    between atoms: _194  and  _195
REMARK   86  A    between atoms: _194  and  _197
REMARK   87  A    between atoms: _197  and  _198
REMARK   88  A    between atoms: _201  and  _203
REMARK   89  A    between atoms: _203  and  _204
REMARK   90  A    between atoms: _207  and  _209
REMARK   91  A    between atoms: _209  and  _210
REMARK   92  A    between atoms: _209  and  _212
REMARK   93  A    between atoms: _212  and  _213
REMARK   94  A    between atoms: _219  and  _221
REMARK   95  A    between atoms: _221  and  _222
REMARK   96  A    between atoms: _221  and  _224
REMARK   97  A    between atoms: _224  and  _225
REMARK   98  A    between atoms: _228  and  _230
REMARK   99  A    between atoms: _230  and  _231
REMARK  100  A    between atoms: _230  and  _233
REMARK  101  A    between atoms: _233  and  _234
REMARK  102  A    between atoms: _239  and  _241
REMARK  103  A    between atoms: _241  and  _242
REMARK  104  A    between atoms: _244  and  _246
REMARK  105  A    between atoms: _246  and  _247
REMARK  106  A    between atoms: _246  and  _249
REMARK  107  A    between atoms: _249  and  _250
REMARK  108  A    between atoms: _253  and  _255
REMARK  109  A    between atoms: _255  and  _256
REMARK  110  A    between atoms: _255  and  _258
REMARK  111  A    between atoms: _258  and  _259
REMARK  112  A    between atoms: _262  and  _264
REMARK  113  A    between atoms: _264  and  _265
REMARK  114  A    between atoms: _268  and  _270
REMARK  115  A    between atoms: _270  and  _271
REMARK  116  A    between atoms: _270  and  _273
REMARK  117  A    between atoms: _276  and  _278
REMARK  118  A    between atoms: _278  and  _279
REMARK  119  A    between atoms: _278  and  _281
REMARK  120  A    between atoms: _281  and  _282
REMARK  121  A    between atoms: _282  and  _283
REMARK  122  A    between atoms: _286  and  _288
REMARK  123  A    between atoms: _288  and  _289
REMARK  124  A    between atoms: _288  and  _291
REMARK  125  A    between atoms: _291  and  _292
REMARK  126  A    between atoms: _292  and  _293
REMARK  127  A    between atoms: _295  and  _297
REMARK  128  A    between atoms: _297  and  _298
REMARK  129  A    between atoms: _297  and  _300
REMARK  130  A    between atoms: _300  and  _301
REMARK  131  A    between atoms: _301  and  _302
REMARK  132  A    between atoms: _305  and  _307
REMARK  133  A    between atoms: _307  and  _308
REMARK  134  A    between atoms: _311  and  _313
REMARK  135  A    between atoms: _313  and  _314
REMARK  136  A    between atoms: _313  and  _316
REMARK  137  A    between atoms: _316  and  _317
REMARK  138  A    between atoms: _320  and  _322
REMARK  139  A    between atoms: _322  and  _323
REMARK  140  A    between atoms: _322  and  _325
REMARK  141  A    between atoms: _325  and  _326
REMARK  142  A    between atoms: _329  and  _331
REMARK  143  A    between atoms: _331  and  _332
REMARK  144  A    between atoms: _331  and  _334
REMARK  145  A    between atoms: _334  and  _335
REMARK  146  A    between atoms: _335  and  _336
REMARK  147  A    between atoms: _336  and  _337
REMARK  148  A    between atoms: _346  and  _348
REMARK  149  A    between atoms: _348  and  _349
REMARK  150  A    between atoms: _352  and  _354
REMARK  151  A    between atoms: _354  and  _355
REMARK  152  A    between atoms: _354  and  _357
REMARK  153  A    between atoms: _357  and  _358
REMARK  154  A    between atoms: _361  and  _363
REMARK  155  A    between atoms: _363  and  _364
REMARK  156  A    between atoms: _363  and  _366
REMARK  157  A    between atoms: _366  and  _367
REMARK  158  A    between atoms: _369  and  _371
REMARK  159  A    between atoms: _371  and  _372
REMARK  160  A    between atoms: _371  and  _374
REMARK  161  A    between atoms: _374  and  _375
REMARK  162  A    between atoms: _378  and  _380
REMARK  163  A    between atoms: _380  and  _381
REMARK  164  A    between atoms: _380  and  _383
REMARK  165  A    between atoms: _386  and  _388
REMARK  166  A    between atoms: _388  and  _389
REMARK  167  A    between atoms: _392  and  _394
REMARK  168  A    between atoms: _394  and  _395
REMARK  169  A    between atoms: _394  and  _397
REMARK  170  A    between atoms: _397  and  _398
REMARK  171  A    between atoms: _401  and  _403
REMARK  172  A    between atoms: _403  and  _404
REMARK  173  A    between atoms: _403  and  _406
REMARK  174  A    between atoms: _406  and  _407
REMARK  175  A    between atoms: _409  and  _411
REMARK  176  A    between atoms: _411  and  _412
REMARK  177  A    between atoms: _411  and  _414
REMARK  178  A    between atoms: _414  and  _415
REMARK  179  A    between atoms: _420  and  _422
REMARK  180  A    between atoms: _422  and  _423
REMARK  181  A    between atoms: _422  and  _425
REMARK  182  A    between atoms: _425  and  _426
REMARK  183  A    between atoms: _428  and  _430
REMARK  184  A    between atoms: _430  and  _431
REMARK  185  A    between atoms: _430  and  _433
REMARK  186  A    between atoms: _433  and  _434
REMARK  187  A    between atoms: _440  and  _442
REMARK  188  A    between atoms: _442  and  _443
REMARK  189  A    between atoms: _442  and  _445
REMARK  190  A    between atoms: _445  and  _446
REMARK  191  A    between atoms: _449  and  _451
REMARK  192  A    between atoms: _451  and  _452
REMARK  193  A    between atoms: _451  and  _454
REMARK  194  A    between atoms: _454  and  _455
REMARK  195  A    between atoms: _458  and  _460
REMARK  196  A    between atoms: _460  and  _461
REMARK  197  A    between atoms: _464  and  _466
REMARK  198  A    between atoms: _466  and  _467
REMARK  199  A    between atoms: _466  and  _469
REMARK  200  A    between atoms: _469  and  _470
REMARK  201  A    between atoms: _473  and  _475
REMARK  202  A    between atoms: _475  and  _476
REMARK  203  A    between atoms: _475  and  _478
REMARK  204  A    between atoms: _481  and  _483
REMARK  205  A    between atoms: _483  and  _484
REMARK  206  A    between atoms: _487  and  _489
REMARK  207  A    between atoms: _489  and  _490
REMARK  208  A    between atoms: _489  and  _492
REMARK  209  A    between atoms: _492  and  _493
REMARK  210  A    between atoms: _499  and  _501
REMARK  211  A    between atoms: _501  and  _502
REMARK  212  A    between atoms: _501  and  _504
REMARK  213  A    between atoms: _504  and  _505
REMARK  214  A    between atoms: _510  and  _511
REMARK  215  A    between atoms: _513  and  _515
REMARK  216  A    between atoms: _515  and  _516
REMARK  217  A    between atoms: _515  and  _518
REMARK  218  A    between atoms: _518  and  _519
REMARK  219  A    between atoms: _523  and  _524
REMARK                            x       y       z     vdW  Elec       q    Type
REMARK                         _______ _______ _______ _____ _____    ______ ____
ROOT
ATOM      1  O   HOH     1      47.949  69.861  23.021  0.00  0.00    +0.000 OA
ENDROOT
TORSDOF 0
