REMARK  Name = ../refined-set-2016/1g46/1g46_pocket.pdb
REMARK  151 active torsions:
REMARK  status: ('A' for Active; 'I' for Inactive)
REMARK    1  A    between atoms: _1  and  _3
REMARK    2  A    between atoms: _3  and  _4
REMARK    3  A    between atoms: _3  and  _6
REMARK    4  A    between atoms: _6  and  _7
REMARK    5  A    between atoms: _17  and  _19
REMARK    6  A    between atoms: _19  and  _20
REMARK    7  A    between atoms: _19  and  _22
REMARK    8  A    between atoms: _22  and  _23
REMARK    9  A    between atoms: _28  and  _29
REMARK   10  A    between atoms: _31  and  _33
REMARK   11  A    between atoms: _33  and  _34
REMARK   12  A    between atoms: _33  and  _36
REMARK   13  A    between atoms: _36  and  _37
REMARK   14  A    between atoms: _40  and  _41
REMARK   15  A    between atoms: _46  and  _48
REMARK   16  A    between atoms: _48  and  _49
REMARK   17  A    between atoms: _48  and  _51
REMARK   18  A    between atoms: _51  and  _52
REMARK   19  A    between atoms: _57  and  _59
REMARK   20  A    between atoms: _59  and  _60
REMARK   21  A    between atoms: _63  and  _65
REMARK   22  A    between atoms: _65  and  _66
REMARK   23  A    between atoms: _65  and  _68
REMARK   24  A    between atoms: _68  and  _69
REMARK   25  A    between atoms: _74  and  _76
REMARK   26  A    between atoms: _76  and  _77
REMARK   27  A    between atoms: _76  and  _79
REMARK   28  A    between atoms: _79  and  _80
REMARK   29  A    between atoms: _83  and  _85
REMARK   30  A    between atoms: _85  and  _86
REMARK   31  A    between atoms: _85  and  _88
REMARK   32  A    between atoms: _88  and  _89
REMARK   33  A    between atoms: _89  and  _90
REMARK   34  A    between atoms: _95  and  _97
REMARK   35  A    between atoms: _97  and  _98
REMARK   36  A    between atoms: _97  and  _100
REMARK   37  A    between atoms: _100  and  _101
REMARK   38  A    between atoms: _107  and  _109
REMARK   39  A    between atoms: _120  and  _123
REMARK   40  A    between atoms: _123  and  _124
REMARK   41  A    between atoms: _132  and  _133
REMARK   42  A    between atoms: _141  and  _143
REMARK   43  A    between atoms: _143  and  _144
REMARK   44  A    between atoms: _143  and  _146
REMARK   45  A    between atoms: _146  and  _147
REMARK   46  A    between atoms: _147  and  _148
REMARK   47  A    between atoms: _151  and  _153
REMARK   48  A    between atoms: _153  and  _154
REMARK   49  A    between atoms: _153  and  _156
REMARK   50  A    between atoms: _156  and  _157
REMARK   51  A    between atoms: _162  and  _164
REMARK   52  A    between atoms: _164  and  _165
REMARK   53  A    between atoms: _164  and  _167
REMARK   54  A    between atoms: _167  and  _168
REMARK   55  A    between atoms: _168  and  _169
REMARK   56  A    between atoms: _172  and  _174
REMARK   57  A    between atoms: _174  and  _175
REMARK   58  A    between atoms: _174  and  _177
REMARK   59  A    between atoms: _177  and  _178
REMARK   60  A    between atoms: _181  and  _183
REMARK   61  A    between atoms: _183  and  _184
REMARK   62  A    between atoms: _183  and  _186
REMARK   63  A    between atoms: _186  and  _187
REMARK   64  A    between atoms: _188  and  ZN_422
REMARK   65  A    between atoms: _192  and  _194
REMARK   66  A    between atoms: _194  and  _195
REMARK   67  A    between atoms: _194  and  _197
REMARK   68  A    between atoms: _197  and  _198
REMARK   69  A    between atoms: _201  and  _203
REMARK   70  A    between atoms: _203  and  _204
REMARK   71  A    between atoms: _203  and  _206
REMARK   72  A    between atoms: _209  and  _211
REMARK   73  A    between atoms: _211  and  _212
REMARK   74  A    between atoms: _211  and  _214
REMARK   75  A    between atoms: _214  and  _215
REMARK   76  A    between atoms: _220  and  _222
REMARK   77  A    between atoms: _222  and  _223
REMARK   78  A    between atoms: _222  and  _225
REMARK   79  A    between atoms: _228  and  _230
REMARK   80  A    between atoms: _230  and  _231
REMARK   81  A    between atoms: _233  and  _235
REMARK   82  A    between atoms: _235  and  _236
REMARK   83  A    between atoms: _239  and  _241
REMARK   84  A    between atoms: _241  and  _242
REMARK   85  A    between atoms: _241  and  _244
REMARK   86  A    between atoms: _247  and  _249
REMARK   87  A    between atoms: _249  and  _250
REMARK   88  A    between atoms: _249  and  _252
REMARK   89  A    between atoms: _252  and  _253
REMARK   90  A    between atoms: _253  and  _254
REMARK   91  A    between atoms: _259  and  _261
REMARK   92  A    between atoms: _261  and  _262
REMARK   93  A    between atoms: _261  and  _264
REMARK   94  A    between atoms: _264  and  _265
REMARK   95  A    between atoms: _268  and  _270
REMARK   96  A    between atoms: _270  and  _271
REMARK   97  A    between atoms: _274  and  _276
REMARK   98  A    between atoms: _276  and  _277
REMARK   99  A    between atoms: _276  and  _279
REMARK  100  A    between atoms: _282  and  _284
REMARK  101  A    between atoms: _284  and  _285
REMARK  102  A    between atoms: _284  and  _287
REMARK  103  A    between atoms: _287  and  _288
REMARK  104  A    between atoms: _291  and  _293
REMARK  105  A    between atoms: _293  and  _294
REMARK  106  A    between atoms: _296  and  _298
REMARK  107  A    between atoms: _298  and  _299
REMARK  108  A    between atoms: _298  and  _301
REMARK  109  A    between atoms: _301  and  _302
REMARK  110  A    between atoms: _304  and  _306
REMARK  111  A    between atoms: _306  and  _307
REMARK  112  A    between atoms: _306  and  _309
REMARK  113  A    between atoms: _309  and  _310
REMARK  114  A    between atoms: _313  and  _315
REMARK  115  A    between atoms: _315  and  _316
REMARK  116  A    between atoms: _315  and  _318
REMARK  117  A    between atoms: _318  and  _319
REMARK  118  A    between atoms: _322  and  _324
REMARK  119  A    between atoms: _324  and  _325
REMARK  120  A    between atoms: _324  and  _327
REMARK  121  A    between atoms: _327  and  _328
REMARK  122  A    between atoms: _332  and  _333
REMARK  123  A    between atoms: _339  and  _340
REMARK  124  A    between atoms: _345  and  _347
REMARK  125  A    between atoms: _347  and  _348
REMARK  126  A    between atoms: _347  and  _350
REMARK  127  A    between atoms: _350  and  _351
REMARK  128  A    between atoms: _354  and  _356
REMARK  129  A    between atoms: _356  and  _357
REMARK  130  A    between atoms: _356  and  _359
REMARK  131  A    between atoms: _359  and  _360
REMARK  132  A    between atoms: _363  and  _365
REMARK  133  A    between atoms: _365  and  _366
REMARK  134  A    between atoms: _365  and  _368
REMARK  135  A    between atoms: _370  and  _372
REMARK  136  A    between atoms: _372  and  _373
REMARK  137  A    between atoms: _372  and  _375
REMARK  138  A    between atoms: _378  and  _380
REMARK  139  A    between atoms: _380  and  _381
REMARK  140  A    between atoms: _380  and  _383
REMARK  141  A    between atoms: _383  and  _384
REMARK  142  A    between atoms: _394  and  _396
REMARK  143  A    between atoms: _396  and  _397
REMARK  144  A    between atoms: _396  and  _399
REMARK  145  A    between atoms: _399  and  _400
REMARK  146  A    between atoms: _405  and  _407
REMARK  147  A    between atoms: _407  and  _408
REMARK  148  A    between atoms: _407  and  _410
REMARK  149  A    between atoms: _410  and  _411
REMARK  150  A    between atoms: _411  and  _412
REMARK  151  A    between atoms: _412  and  _413
REMARK                            x       y       z     vdW  Elec       q    Type
REMARK                         _______ _______ _______ _____ _____    ______ ____
ROOT
ATOM      1  CG  TRP A   1       5.430   0.246  12.099  0.00  0.00    -0.002 A 
ATOM      2  CD2 TRP A   1       4.087  -0.268  12.069  0.00  0.00    +0.013 A 
ATOM      3  CE3 TRP A   1       3.523  -1.522  12.330  0.00  0.00    +0.001 A 
ATOM      4  CZ3 TRP A   1       2.153  -1.674  12.203  0.00  0.00    +0.000 A 
ATOM      5  CH2 TRP A   1       1.332  -0.593  11.818  0.00  0.00    +0.001 A 
ATOM      6  CZ2 TRP A   1       1.853   0.645  11.555  0.00  0.00    +0.017 A 
ATOM      7  CE2 TRP A   1       3.235   0.800  11.683  0.00  0.00    +0.056 A 
ATOM      8  NE1 TRP A   1       4.020   1.911  11.501  0.00  0.00    -0.352 N 
ATOM      9  HE1 TRP A   1       3.679   2.852  11.218  0.00  0.00    +0.166 HD
ATOM     10  CD1 TRP A   1       5.335   1.579  11.754  0.00  0.00    +0.068 A 
ENDROOT
BRANCH   1  11
ATOM     11  CB  TRP A   1       6.702  -0.541  12.396  0.00  0.00    +0.053 C 
BRANCH  11  12
ATOM     12  CA  TRP A   1       7.412  -1.100  11.148  0.00  0.00    +0.137 C 
BRANCH  12  13
ATOM     13  N   TRP A   1       7.876  -0.012  10.282  0.00  0.00    -0.239 NA
ATOM     14  H   TRP A   1       7.478   0.941  10.409  0.00  0.00    +0.142 HD
ENDBRANCH  12  13
BRANCH  12  15
ATOM     15  C   TRP A   1       6.465  -2.023  10.395  0.00  0.00    +0.224 C 
ATOM     16  O   TRP A   1       5.891  -1.643   9.359  0.00  0.00    -0.287 OA
ENDBRANCH  12  15
ENDBRANCH  11  12
ENDBRANCH   1  11
TORSDOF 4
REMARK  Name = ../refined-set-2016/1g46/1g46_pocket.pdb
REMARK  151 active torsions:
REMARK  status: ('A' for Active; 'I' for Inactive)
REMARK    1  A    between atoms: _1  and  _3
REMARK    2  A    between atoms: _3  and  _4
REMARK    3  A    between atoms: _3  and  _6
REMARK    4  A    between atoms: _6  and  _7
REMARK    5  A    between atoms: _17  and  _19
REMARK    6  A    between atoms: _19  and  _20
REMARK    7  A    between atoms: _19  and  _22
REMARK    8  A    between atoms: _22  and  _23
REMARK    9  A    between atoms: _28  and  _29
REMARK   10  A    between atoms: _31  and  _33
REMARK   11  A    between atoms: _33  and  _34
REMARK   12  A    between atoms: _33  and  _36
REMARK   13  A    between atoms: _36  and  _37
REMARK   14  A    between atoms: _40  and  _41
REMARK   15  A    between atoms: _46  and  _48
REMARK   16  A    between atoms: _48  and  _49
REMARK   17  A    between atoms: _48  and  _51
REMARK   18  A    between atoms: _51  and  _52
REMARK   19  A    between atoms: _57  and  _59
REMARK   20  A    between atoms: _59  and  _60
REMARK   21  A    between atoms: _63  and  _65
REMARK   22  A    between atoms: _65  and  _66
REMARK   23  A    between atoms: _65  and  _68
REMARK   24  A    between atoms: _68  and  _69
REMARK   25  A    between atoms: _74  and  _76
REMARK   26  A    between atoms: _76  and  _77
REMARK   27  A    between atoms: _76  and  _79
REMARK   28  A    between atoms: _79  and  _80
REMARK   29  A    between atoms: _83  and  _85
REMARK   30  A    between atoms: _85  and  _86
REMARK   31  A    between atoms: _85  and  _88
REMARK   32  A    between atoms: _88  and  _89
REMARK   33  A    between atoms: _89  and  _90
REMARK   34  A    between atoms: _95  and  _97
REMARK   35  A    between atoms: _97  and  _98
REMARK   36  A    between atoms: _97  and  _100
REMARK   37  A    between atoms: _100  and  _101
REMARK   38  A    between atoms: _107  and  _109
REMARK   39  A    between atoms: _120  and  _123
REMARK   40  A    between atoms: _123  and  _124
REMARK   41  A    between atoms: _132  and  _133
REMARK   42  A    between atoms: _141  and  _143
REMARK   43  A    between atoms: _143  and  _144
REMARK   44  A    between atoms: _143  and  _146
REMARK   45  A    between atoms: _146  and  _147
REMARK   46  A    between atoms: _147  and  _148
REMARK   47  A    between atoms: _151  and  _153
REMARK   48  A    between atoms: _153  and  _154
REMARK   49  A    between atoms: _153  and  _156
REMARK   50  A    between atoms: _156  and  _157
REMARK   51  A    between atoms: _162  and  _164
REMARK   52  A    between atoms: _164  and  _165
REMARK   53  A    between atoms: _164  and  _167
REMARK   54  A    between atoms: _167  and  _168
REMARK   55  A    between atoms: _168  and  _169
REMARK   56  A    between atoms: _172  and  _174
REMARK   57  A    between atoms: _174  and  _175
REMARK   58  A    between atoms: _174  and  _177
REMARK   59  A    between atoms: _177  and  _178
REMARK   60  A    between atoms: _181  and  _183
REMARK   61  A    between atoms: _183  and  _184
REMARK   62  A    between atoms: _183  and  _186
REMARK   63  A    between atoms: _186  and  _187
REMARK   64  A    between atoms: _188  and  ZN_422
REMARK   65  A    between atoms: _192  and  _194
REMARK   66  A    between atoms: _194  and  _195
REMARK   67  A    between atoms: _194  and  _197
REMARK   68  A    between atoms: _197  and  _198
REMARK   69  A    between atoms: _201  and  _203
REMARK   70  A    between atoms: _203  and  _204
REMARK   71  A    between atoms: _203  and  _206
REMARK   72  A    between atoms: _209  and  _211
REMARK   73  A    between atoms: _211  and  _212
REMARK   74  A    between atoms: _211  and  _214
REMARK   75  A    between atoms: _214  and  _215
REMARK   76  A    between atoms: _220  and  _222
REMARK   77  A    between atoms: _222  and  _223
REMARK   78  A    between atoms: _222  and  _225
REMARK   79  A    between atoms: _228  and  _230
REMARK   80  A    between atoms: _230  and  _231
REMARK   81  A    between atoms: _233  and  _235
REMARK   82  A    between atoms: _235  and  _236
REMARK   83  A    between atoms: _239  and  _241
REMARK   84  A    between atoms: _241  and  _242
REMARK   85  A    between atoms: _241  and  _244
REMARK   86  A    between atoms: _247  and  _249
REMARK   87  A    between atoms: _249  and  _250
REMARK   88  A    between atoms: _249  and  _252
REMARK   89  A    between atoms: _252  and  _253
REMARK   90  A    between atoms: _253  and  _254
REMARK   91  A    between atoms: _259  and  _261
REMARK   92  A    between atoms: _261  and  _262
REMARK   93  A    between atoms: _261  and  _264
REMARK   94  A    between atoms: _264  and  _265
REMARK   95  A    between atoms: _268  and  _270
REMARK   96  A    between atoms: _270  and  _271
REMARK   97  A    between atoms: _274  and  _276
REMARK   98  A    between atoms: _276  and  _277
REMARK   99  A    between atoms: _276  and  _279
REMARK  100  A    between atoms: _282  and  _284
REMARK  101  A    between atoms: _284  and  _285
REMARK  102  A    between atoms: _284  and  _287
REMARK  103  A    between atoms: _287  and  _288
REMARK  104  A    between atoms: _291  and  _293
REMARK  105  A    between atoms: _293  and  _294
REMARK  106  A    between atoms: _296  and  _298
REMARK  107  A    between atoms: _298  and  _299
REMARK  108  A    between atoms: _298  and  _301
REMARK  109  A    between atoms: _301  and  _302
REMARK  110  A    between atoms: _304  and  _306
REMARK  111  A    between atoms: _306  and  _307
REMARK  112  A    between atoms: _306  and  _309
REMARK  113  A    between atoms: _309  and  _310
REMARK  114  A    between atoms: _313  and  _315
REMARK  115  A    between atoms: _315  and  _316
REMARK  116  A    between atoms: _315  and  _318
REMARK  117  A    between atoms: _318  and  _319
REMARK  118  A    between atoms: _322  and  _324
REMARK  119  A    between atoms: _324  and  _325
REMARK  120  A    between atoms: _324  and  _327
REMARK  121  A    between atoms: _327  and  _328
REMARK  122  A    between atoms: _332  and  _333
REMARK  123  A    between atoms: _339  and  _340
REMARK  124  A    between atoms: _345  and  _347
REMARK  125  A    between atoms: _347  and  _348
REMARK  126  A    between atoms: _347  and  _350
REMARK  127  A    between atoms: _350  and  _351
REMARK  128  A    between atoms: _354  and  _356
REMARK  129  A    between atoms: _356  and  _357
REMARK  130  A    between atoms: _356  and  _359
REMARK  131  A    between atoms: _359  and  _360
REMARK  132  A    between atoms: _363  and  _365
REMARK  133  A    between atoms: _365  and  _366
REMARK  134  A    between atoms: _365  and  _368
REMARK  135  A    between atoms: _370  and  _372
REMARK  136  A    between atoms: _372  and  _373
REMARK  137  A    between atoms: _372  and  _375
REMARK  138  A    between atoms: _378  and  _380
REMARK  139  A    between atoms: _380  and  _381
REMARK  140  A    between atoms: _380  and  _383
REMARK  141  A    between atoms: _383  and  _384
REMARK  142  A    between atoms: _394  and  _396
REMARK  143  A    between atoms: _396  and  _397
REMARK  144  A    between atoms: _396  and  _399
REMARK  145  A    between atoms: _399  and  _400
REMARK  146  A    between atoms: _405  and  _407
REMARK  147  A    between atoms: _407  and  _408
REMARK  148  A    between atoms: _407  and  _410
REMARK  149  A    between atoms: _410  and  _411
REMARK  150  A    between atoms: _411  and  _412
REMARK  151  A    between atoms: _412  and  _413
REMARK                            x       y       z     vdW  Elec       q    Type
REMARK                         _______ _______ _______ _____ _____    ______ ____
ROOT
ATOM      1  CG  TYR A   1       1.859  -6.853  11.951  0.00  0.00    -0.020 A 
ATOM      2  CD2 TYR A   1       1.541  -6.771  13.312  0.00  0.00    -0.001 A 
ATOM      3  CE2 TYR A   1       0.681  -5.789  13.789  0.00  0.00    +0.036 A 
ATOM      4  CZ  TYR A   1       0.121  -4.870  12.892  0.00  0.00    +0.134 A 
ATOM      5  CE1 TYR A   1       0.417  -4.936  11.536  0.00  0.00    +0.036 A 
ATOM      6  CD1 TYR A   1       1.289  -5.924  11.072  0.00  0.00    -0.001 A 
ENDROOT
BRANCH   4   7
ATOM      7  OH  TYR A   1      -0.706  -3.878  13.377  0.00  0.00    -0.506 OA
ATOM      8  HH  TYR A   1      -0.806  -3.983  14.356  0.00  0.00    +0.292 HD
ENDBRANCH   4   7
BRANCH   1   9
ATOM      9  CB  TYR A   1       2.792  -7.921  11.448  0.00  0.00    +0.051 C 
BRANCH   9  10
ATOM     10  CA  TYR A   1       4.277  -7.591  11.637  0.00  0.00    +0.137 C 
BRANCH  10  11
ATOM     11  N   TYR A   1       4.668  -6.448  10.803  0.00  0.00    -0.239 NA
ATOM     12  H   TYR A   1       4.679  -6.567   9.770  0.00  0.00    +0.142 HD
ENDBRANCH  10  11
BRANCH  10  13
ATOM     13  C   TYR A   1       5.118  -8.836  11.323  0.00  0.00    +0.224 C 
ATOM     14  O   TYR A   1       4.791  -9.944  11.757  0.00  0.00    -0.287 OA
ENDBRANCH  10  13
ENDBRANCH   9  10
ENDBRANCH   1   9
TORSDOF 5
REMARK  Name = ../refined-set-2016/1g46/1g46_pocket.pdb
REMARK  151 active torsions:
REMARK  status: ('A' for Active; 'I' for Inactive)
REMARK    1  A    between atoms: _1  and  _3
REMARK    2  A    between atoms: _3  and  _4
REMARK    3  A    between atoms: _3  and  _6
REMARK    4  A    between atoms: _6  and  _7
REMARK    5  A    between atoms: _17  and  _19
REMARK    6  A    between atoms: _19  and  _20
REMARK    7  A    between atoms: _19  and  _22
REMARK    8  A    between atoms: _22  and  _23
REMARK    9  A    between atoms: _28  and  _29
REMARK   10  A    between atoms: _31  and  _33
REMARK   11  A    between atoms: _33  and  _34
REMARK   12  A    between atoms: _33  and  _36
REMARK   13  A    between atoms: _36  and  _37
REMARK   14  A    between atoms: _40  and  _41
REMARK   15  A    between atoms: _46  and  _48
REMARK   16  A    between atoms: _48  and  _49
REMARK   17  A    between atoms: _48  and  _51
REMARK   18  A    between atoms: _51  and  _52
REMARK   19  A    between atoms: _57  and  _59
REMARK   20  A    between atoms: _59  and  _60
REMARK   21  A    between atoms: _63  and  _65
REMARK   22  A    between atoms: _65  and  _66
REMARK   23  A    between atoms: _65  and  _68
REMARK   24  A    between atoms: _68  and  _69
REMARK   25  A    between atoms: _74  and  _76
REMARK   26  A    between atoms: _76  and  _77
REMARK   27  A    between atoms: _76  and  _79
REMARK   28  A    between atoms: _79  and  _80
REMARK   29  A    between atoms: _83  and  _85
REMARK   30  A    between atoms: _85  and  _86
REMARK   31  A    between atoms: _85  and  _88
REMARK   32  A    between atoms: _88  and  _89
REMARK   33  A    between atoms: _89  and  _90
REMARK   34  A    between atoms: _95  and  _97
REMARK   35  A    between atoms: _97  and  _98
REMARK   36  A    between atoms: _97  and  _100
REMARK   37  A    between atoms: _100  and  _101
REMARK   38  A    between atoms: _107  and  _109
REMARK   39  A    between atoms: _120  and  _123
REMARK   40  A    between atoms: _123  and  _124
REMARK   41  A    between atoms: _132  and  _133
REMARK   42  A    between atoms: _141  and  _143
REMARK   43  A    between atoms: _143  and  _144
REMARK   44  A    between atoms: _143  and  _146
REMARK   45  A    between atoms: _146  and  _147
REMARK   46  A    between atoms: _147  and  _148
REMARK   47  A    between atoms: _151  and  _153
REMARK   48  A    between atoms: _153  and  _154
REMARK   49  A    between atoms: _153  and  _156
REMARK   50  A    between atoms: _156  and  _157
REMARK   51  A    between atoms: _162  and  _164
REMARK   52  A    between atoms: _164  and  _165
REMARK   53  A    between atoms: _164  and  _167
REMARK   54  A    between atoms: _167  and  _168
REMARK   55  A    between atoms: _168  and  _169
REMARK   56  A    between atoms: _172  and  _174
REMARK   57  A    between atoms: _174  and  _175
REMARK   58  A    between atoms: _174  and  _177
REMARK   59  A    between atoms: _177  and  _178
REMARK   60  A    between atoms: _181  and  _183
REMARK   61  A    between atoms: _183  and  _184
REMARK   62  A    between atoms: _183  and  _186
REMARK   63  A    between atoms: _186  and  _187
REMARK   64  A    between atoms: _188  and  ZN_422
REMARK   65  A    between atoms: _192  and  _194
REMARK   66  A    between atoms: _194  and  _195
REMARK   67  A    between atoms: _194  and  _197
REMARK   68  A    between atoms: _197  and  _198
REMARK   69  A    between atoms: _201  and  _203
REMARK   70  A    between atoms: _203  and  _204
REMARK   71  A    between atoms: _203  and  _206
REMARK   72  A    between atoms: _209  and  _211
REMARK   73  A    between atoms: _211  and  _212
REMARK   74  A    between atoms: _211  and  _214
REMARK   75  A    between atoms: _214  and  _215
REMARK   76  A    between atoms: _220  and  _222
REMARK   77  A    between atoms: _222  and  _223
REMARK   78  A    between atoms: _222  and  _225
REMARK   79  A    between atoms: _228  and  _230
REMARK   80  A    between atoms: _230  and  _231
REMARK   81  A    between atoms: _233  and  _235
REMARK   82  A    between atoms: _235  and  _236
REMARK   83  A    between atoms: _239  and  _241
REMARK   84  A    between atoms: _241  and  _242
REMARK   85  A    between atoms: _241  and  _244
REMARK   86  A    between atoms: _247  and  _249
REMARK   87  A    between atoms: _249  and  _250
REMARK   88  A    between atoms: _249  and  _252
REMARK   89  A    between atoms: _252  and  _253
REMARK   90  A    between atoms: _253  and  _254
REMARK   91  A    between atoms: _259  and  _261
REMARK   92  A    between atoms: _261  and  _262
REMARK   93  A    between atoms: _261  and  _264
REMARK   94  A    between atoms: _264  and  _265
REMARK   95  A    between atoms: _268  and  _270
REMARK   96  A    between atoms: _270  and  _271
REMARK   97  A    between atoms: _274  and  _276
REMARK   98  A    between atoms: _276  and  _277
REMARK   99  A    between atoms: _276  and  _279
REMARK  100  A    between atoms: _282  and  _284
REMARK  101  A    between atoms: _284  and  _285
REMARK  102  A    between atoms: _284  and  _287
REMARK  103  A    between atoms: _287  and  _288
REMARK  104  A    between atoms: _291  and  _293
REMARK  105  A    between atoms: _293  and  _294
REMARK  106  A    between atoms: _296  and  _298
REMARK  107  A    between atoms: _298  and  _299
REMARK  108  A    between atoms: _298  and  _301
REMARK  109  A    between atoms: _301  and  _302
REMARK  110  A    between atoms: _304  and  _306
REMARK  111  A    between atoms: _306  and  _307
REMARK  112  A    between atoms: _306  and  _309
REMARK  113  A    between atoms: _309  and  _310
REMARK  114  A    between atoms: _313  and  _315
REMARK  115  A    between atoms: _315  and  _316
REMARK  116  A    between atoms: _315  and  _318
REMARK  117  A    between atoms: _318  and  _319
REMARK  118  A    between atoms: _322  and  _324
REMARK  119  A    between atoms: _324  and  _325
REMARK  120  A    between atoms: _324  and  _327
REMARK  121  A    between atoms: _327  and  _328
REMARK  122  A    between atoms: _332  and  _333
REMARK  123  A    between atoms: _339  and  _340
REMARK  124  A    between atoms: _345  and  _347
REMARK  125  A    between atoms: _347  and  _348
REMARK  126  A    between atoms: _347  and  _350
REMARK  127  A    between atoms: _350  and  _351
REMARK  128  A    between atoms: _354  and  _356
REMARK  129  A    between atoms: _356  and  _357
REMARK  130  A    between atoms: _356  and  _359
REMARK  131  A    between atoms: _359  and  _360
REMARK  132  A    between atoms: _363  and  _365
REMARK  133  A    between atoms: _365  and  _366
REMARK  134  A    between atoms: _365  and  _368
REMARK  135  A    between atoms: _370  and  _372
REMARK  136  A    between atoms: _372  and  _373
REMARK  137  A    between atoms: _372  and  _375
REMARK  138  A    between atoms: _378  and  _380
REMARK  139  A    between atoms: _380  and  _381
REMARK  140  A    between atoms: _380  and  _383
REMARK  141  A    between atoms: _383  and  _384
REMARK  142  A    between atoms: _394  and  _396
REMARK  143  A    between atoms: _396  and  _397
REMARK  144  A    between atoms: _396  and  _399
REMARK  145  A    between atoms: _399  and  _400
REMARK  146  A    between atoms: _405  and  _407
REMARK  147  A    between atoms: _407  and  _408
REMARK  148  A    between atoms: _407  and  _410
REMARK  149  A    between atoms: _410  and  _411
REMARK  150  A    between atoms: _411  and  _412
REMARK  151  A    between atoms: _412  and  _413
REMARK                            x       y       z     vdW  Elec       q    Type
REMARK                         _______ _______ _______ _____ _____    ______ ____
ROOT
ATOM      1  C   SER A   1      -2.311  -3.019  23.358  0.00  0.00    +0.244 C 
ATOM      2  N   PRO A   2      -2.949  -4.172  23.105  0.00  0.00    -0.273 N 
ATOM      3  CA  PRO A   2      -4.156  -4.673  23.771  0.00  0.00    +0.140 C 
ATOM      4  CB  PRO A   2      -4.702  -5.652  22.756  0.00  0.00    +0.030 C 
ATOM      5  CG  PRO A   2      -3.420  -6.277  22.249  0.00  0.00    +0.024 C 
ATOM      6  CD  PRO A   2      -2.550  -5.068  22.009  0.00  0.00    +0.094 C 
ATOM      7  O   SER A   1      -1.352  -2.645  22.684  0.00  0.00    -0.273 OA
ENDROOT
BRANCH   3   8
ATOM      8  C   PRO A   2      -3.767  -5.386  25.045  0.00  0.00    +0.227 C 
ATOM      9  O   PRO A   2      -2.585  -5.466  25.369  0.00  0.00    -0.286 OA
ENDBRANCH   3   8
BRANCH   1  10
ATOM     10  CA  SER A   1      -2.881  -2.118  24.448  0.00  0.00    +0.175 C 
BRANCH  10  11
ATOM     11  N   SER A   1      -1.835  -1.191  24.864  0.00  0.00    -0.236 NA
ATOM     12  H   SER A   1      -1.393  -0.571  24.156  0.00  0.00    +0.142 HD
ENDBRANCH  10  11
BRANCH  10  13
ATOM     13  CB  SER A   1      -4.086  -1.357  23.901  0.00  0.00    +0.163 C 
BRANCH  13  14
ATOM     14  OG  SER A   1      -4.716  -0.606  24.917  0.00  0.00    -0.380 OA
ATOM     15  H   SER A   1      -5.024  -1.216  25.634  0.00  0.00    +0.211 HD
ENDBRANCH  13  14
ENDBRANCH  10  13
ENDBRANCH   1  10
TORSDOF 5
REMARK  Name = ../refined-set-2016/1g46/1g46_pocket.pdb
REMARK  151 active torsions:
REMARK  status: ('A' for Active; 'I' for Inactive)
REMARK    1  A    between atoms: _1  and  _3
REMARK    2  A    between atoms: _3  and  _4
REMARK    3  A    between atoms: _3  and  _6
REMARK    4  A    between atoms: _6  and  _7
REMARK    5  A    between atoms: _17  and  _19
REMARK    6  A    between atoms: _19  and  _20
REMARK    7  A    between atoms: _19  and  _22
REMARK    8  A    between atoms: _22  and  _23
REMARK    9  A    between atoms: _28  and  _29
REMARK   10  A    between atoms: _31  and  _33
REMARK   11  A    between atoms: _33  and  _34
REMARK   12  A    between atoms: _33  and  _36
REMARK   13  A    between atoms: _36  and  _37
REMARK   14  A    between atoms: _40  and  _41
REMARK   15  A    between atoms: _46  and  _48
REMARK   16  A    between atoms: _48  and  _49
REMARK   17  A    between atoms: _48  and  _51
REMARK   18  A    between atoms: _51  and  _52
REMARK   19  A    between atoms: _57  and  _59
REMARK   20  A    between atoms: _59  and  _60
REMARK   21  A    between atoms: _63  and  _65
REMARK   22  A    between atoms: _65  and  _66
REMARK   23  A    between atoms: _65  and  _68
REMARK   24  A    between atoms: _68  and  _69
REMARK   25  A    between atoms: _74  and  _76
REMARK   26  A    between atoms: _76  and  _77
REMARK   27  A    between atoms: _76  and  _79
REMARK   28  A    between atoms: _79  and  _80
REMARK   29  A    between atoms: _83  and  _85
REMARK   30  A    between atoms: _85  and  _86
REMARK   31  A    between atoms: _85  and  _88
REMARK   32  A    between atoms: _88  and  _89
REMARK   33  A    between atoms: _89  and  _90
REMARK   34  A    between atoms: _95  and  _97
REMARK   35  A    between atoms: _97  and  _98
REMARK   36  A    between atoms: _97  and  _100
REMARK   37  A    between atoms: _100  and  _101
REMARK   38  A    between atoms: _107  and  _109
REMARK   39  A    between atoms: _120  and  _123
REMARK   40  A    between atoms: _123  and  _124
REMARK   41  A    between atoms: _132  and  _133
REMARK   42  A    between atoms: _141  and  _143
REMARK   43  A    between atoms: _143  and  _144
REMARK   44  A    between atoms: _143  and  _146
REMARK   45  A    between atoms: _146  and  _147
REMARK   46  A    between atoms: _147  and  _148
REMARK   47  A    between atoms: _151  and  _153
REMARK   48  A    between atoms: _153  and  _154
REMARK   49  A    between atoms: _153  and  _156
REMARK   50  A    between atoms: _156  and  _157
REMARK   51  A    between atoms: _162  and  _164
REMARK   52  A    between atoms: _164  and  _165
REMARK   53  A    between atoms: _164  and  _167
REMARK   54  A    between atoms: _167  and  _168
REMARK   55  A    between atoms: _168  and  _169
REMARK   56  A    between atoms: _172  and  _174
REMARK   57  A    between atoms: _174  and  _175
REMARK   58  A    between atoms: _174  and  _177
REMARK   59  A    between atoms: _177  and  _178
REMARK   60  A    between atoms: _181  and  _183
REMARK   61  A    between atoms: _183  and  _184
REMARK   62  A    between atoms: _183  and  _186
REMARK   63  A    between atoms: _186  and  _187
REMARK   64  A    between atoms: _188  and  ZN_422
REMARK   65  A    between atoms: _192  and  _194
REMARK   66  A    between atoms: _194  and  _195
REMARK   67  A    between atoms: _194  and  _197
REMARK   68  A    between atoms: _197  and  _198
REMARK   69  A    between atoms: _201  and  _203
REMARK   70  A    between atoms: _203  and  _204
REMARK   71  A    between atoms: _203  and  _206
REMARK   72  A    between atoms: _209  and  _211
REMARK   73  A    between atoms: _211  and  _212
REMARK   74  A    between atoms: _211  and  _214
REMARK   75  A    between atoms: _214  and  _215
REMARK   76  A    between atoms: _220  and  _222
REMARK   77  A    between atoms: _222  and  _223
REMARK   78  A    between atoms: _222  and  _225
REMARK   79  A    between atoms: _228  and  _230
REMARK   80  A    between atoms: _230  and  _231
REMARK   81  A    between atoms: _233  and  _235
REMARK   82  A    between atoms: _235  and  _236
REMARK   83  A    between atoms: _239  and  _241
REMARK   84  A    between atoms: _241  and  _242
REMARK   85  A    between atoms: _241  and  _244
REMARK   86  A    between atoms: _247  and  _249
REMARK   87  A    between atoms: _249  and  _250
REMARK   88  A    between atoms: _249  and  _252
REMARK   89  A    between atoms: _252  and  _253
REMARK   90  A    between atoms: _253  and  _254
REMARK   91  A    between atoms: _259  and  _261
REMARK   92  A    between atoms: _261  and  _262
REMARK   93  A    between atoms: _261  and  _264
REMARK   94  A    between atoms: _264  and  _265
REMARK   95  A    between atoms: _268  and  _270
REMARK   96  A    between atoms: _270  and  _271
REMARK   97  A    between atoms: _274  and  _276
REMARK   98  A    between atoms: _276  and  _277
REMARK   99  A    between atoms: _276  and  _279
REMARK  100  A    between atoms: _282  and  _284
REMARK  101  A    between atoms: _284  and  _285
REMARK  102  A    between atoms: _284  and  _287
REMARK  103  A    between atoms: _287  and  _288
REMARK  104  A    between atoms: _291  and  _293
REMARK  105  A    between atoms: _293  and  _294
REMARK  106  A    between atoms: _296  and  _298
REMARK  107  A    between atoms: _298  and  _299
REMARK  108  A    between atoms: _298  and  _301
REMARK  109  A    between atoms: _301  and  _302
REMARK  110  A    between atoms: _304  and  _306
REMARK  111  A    between atoms: _306  and  _307
REMARK  112  A    between atoms: _306  and  _309
REMARK  113  A    between atoms: _309  and  _310
REMARK  114  A    between atoms: _313  and  _315
REMARK  115  A    between atoms: _315  and  _316
REMARK  116  A    between atoms: _315  and  _318
REMARK  117  A    between atoms: _318  and  _319
REMARK  118  A    between atoms: _322  and  _324
REMARK  119  A    between atoms: _324  and  _325
REMARK  120  A    between atoms: _324  and  _327
REMARK  121  A    between atoms: _327  and  _328
REMARK  122  A    between atoms: _332  and  _333
REMARK  123  A    between atoms: _339  and  _340
REMARK  124  A    between atoms: _345  and  _347
REMARK  125  A    between atoms: _347  and  _348
REMARK  126  A    between atoms: _347  and  _350
REMARK  127  A    between atoms: _350  and  _351
REMARK  128  A    between atoms: _354  and  _356
REMARK  129  A    between atoms: _356  and  _357
REMARK  130  A    between atoms: _356  and  _359
REMARK  131  A    between atoms: _359  and  _360
REMARK  132  A    between atoms: _363  and  _365
REMARK  133  A    between atoms: _365  and  _366
REMARK  134  A    between atoms: _365  and  _368
REMARK  135  A    between atoms: _370  and  _372
REMARK  136  A    between atoms: _372  and  _373
REMARK  137  A    between atoms: _372  and  _375
REMARK  138  A    between atoms: _378  and  _380
REMARK  139  A    between atoms: _380  and  _381
REMARK  140  A    between atoms: _380  and  _383
REMARK  141  A    between atoms: _383  and  _384
REMARK  142  A    between atoms: _394  and  _396
REMARK  143  A    between atoms: _396  and  _397
REMARK  144  A    between atoms: _396  and  _399
REMARK  145  A    between atoms: _399  and  _400
REMARK  146  A    between atoms: _405  and  _407
REMARK  147  A    between atoms: _407  and  _408
REMARK  148  A    between atoms: _407  and  _410
REMARK  149  A    between atoms: _410  and  _411
REMARK  150  A    between atoms: _411  and  _412
REMARK  151  A    between atoms: _412  and  _413
REMARK                            x       y       z     vdW  Elec       q    Type
REMARK                         _______ _______ _______ _____ _____    ______ ____
ROOT
ATOM      1  CB  ASN A   1      -2.665   2.235   5.056  0.00  0.00    +0.110 C 
ENDROOT
BRANCH   1   2
ATOM      2  CG  ASN A   1      -3.044   1.537   6.375  0.00  0.00    +0.221 C 
ATOM      3  ND2 ASN A   1      -3.500   2.324   7.333  0.00  0.00    -0.329 N 
ATOM      4 HD21 ASN A   1      -3.774   1.920   8.251  0.00  0.00    +0.145 HD
ATOM      5 HD22 ASN A   1      -3.585   3.347   7.169  0.00  0.00    +0.145 HD
ATOM      6  OD1 ASN A   1      -2.930   0.330   6.531  0.00  0.00    -0.275 OA
ENDBRANCH   1   2
BRANCH   1   7
ATOM      7  CA  ASN A   1      -2.301   1.260   3.916  0.00  0.00    +0.142 C 
BRANCH   7   8
ATOM      8  N   ASN A   1      -3.456   0.457   3.549  0.00  0.00    -0.239 NA
ATOM      9  H   ASN A   1      -4.004  -0.038   4.281  0.00  0.00    +0.142 HD
ENDBRANCH   7   8
BRANCH   7  10
ATOM     10  C   ASN A   1      -1.081   0.422   4.304  0.00  0.00    +0.225 C 
ATOM     11  O   ASN A   1      -0.112   0.959   4.849  0.00  0.00    -0.287 OA
ENDBRANCH   7  10
ENDBRANCH   1   7
TORSDOF 4
REMARK  Name = ../refined-set-2016/1g46/1g46_pocket.pdb
REMARK  151 active torsions:
REMARK  status: ('A' for Active; 'I' for Inactive)
REMARK    1  A    between atoms: _1  and  _3
REMARK    2  A    between atoms: _3  and  _4
REMARK    3  A    between atoms: _3  and  _6
REMARK    4  A    between atoms: _6  and  _7
REMARK    5  A    between atoms: _17  and  _19
REMARK    6  A    between atoms: _19  and  _20
REMARK    7  A    between atoms: _19  and  _22
REMARK    8  A    between atoms: _22  and  _23
REMARK    9  A    between atoms: _28  and  _29
REMARK   10  A    between atoms: _31  and  _33
REMARK   11  A    between atoms: _33  and  _34
REMARK   12  A    between atoms: _33  and  _36
REMARK   13  A    between atoms: _36  and  _37
REMARK   14  A    between atoms: _40  and  _41
REMARK   15  A    between atoms: _46  and  _48
REMARK   16  A    between atoms: _48  and  _49
REMARK   17  A    between atoms: _48  and  _51
REMARK   18  A    between atoms: _51  and  _52
REMARK   19  A    between atoms: _57  and  _59
REMARK   20  A    between atoms: _59  and  _60
REMARK   21  A    between atoms: _63  and  _65
REMARK   22  A    between atoms: _65  and  _66
REMARK   23  A    between atoms: _65  and  _68
REMARK   24  A    between atoms: _68  and  _69
REMARK   25  A    between atoms: _74  and  _76
REMARK   26  A    between atoms: _76  and  _77
REMARK   27  A    between atoms: _76  and  _79
REMARK   28  A    between atoms: _79  and  _80
REMARK   29  A    between atoms: _83  and  _85
REMARK   30  A    between atoms: _85  and  _86
REMARK   31  A    between atoms: _85  and  _88
REMARK   32  A    between atoms: _88  and  _89
REMARK   33  A    between atoms: _89  and  _90
REMARK   34  A    between atoms: _95  and  _97
REMARK   35  A    between atoms: _97  and  _98
REMARK   36  A    between atoms: _97  and  _100
REMARK   37  A    between atoms: _100  and  _101
REMARK   38  A    between atoms: _107  and  _109
REMARK   39  A    between atoms: _120  and  _123
REMARK   40  A    between atoms: _123  and  _124
REMARK   41  A    between atoms: _132  and  _133
REMARK   42  A    between atoms: _141  and  _143
REMARK   43  A    between atoms: _143  and  _144
REMARK   44  A    between atoms: _143  and  _146
REMARK   45  A    between atoms: _146  and  _147
REMARK   46  A    between atoms: _147  and  _148
REMARK   47  A    between atoms: _151  and  _153
REMARK   48  A    between atoms: _153  and  _154
REMARK   49  A    between atoms: _153  and  _156
REMARK   50  A    between atoms: _156  and  _157
REMARK   51  A    between atoms: _162  and  _164
REMARK   52  A    between atoms: _164  and  _165
REMARK   53  A    between atoms: _164  and  _167
REMARK   54  A    between atoms: _167  and  _168
REMARK   55  A    between atoms: _168  and  _169
REMARK   56  A    between atoms: _172  and  _174
REMARK   57  A    between atoms: _174  and  _175
REMARK   58  A    between atoms: _174  and  _177
REMARK   59  A    between atoms: _177  and  _178
REMARK   60  A    between atoms: _181  and  _183
REMARK   61  A    between atoms: _183  and  _184
REMARK   62  A    between atoms: _183  and  _186
REMARK   63  A    between atoms: _186  and  _187
REMARK   64  A    between atoms: _188  and  ZN_422
REMARK   65  A    between atoms: _192  and  _194
REMARK   66  A    between atoms: _194  and  _195
REMARK   67  A    between atoms: _194  and  _197
REMARK   68  A    between atoms: _197  and  _198
REMARK   69  A    between atoms: _201  and  _203
REMARK   70  A    between atoms: _203  and  _204
REMARK   71  A    between atoms: _203  and  _206
REMARK   72  A    between atoms: _209  and  _211
REMARK   73  A    between atoms: _211  and  _212
REMARK   74  A    between atoms: _211  and  _214
REMARK   75  A    between atoms: _214  and  _215
REMARK   76  A    between atoms: _220  and  _222
REMARK   77  A    between atoms: _222  and  _223
REMARK   78  A    between atoms: _222  and  _225
REMARK   79  A    between atoms: _228  and  _230
REMARK   80  A    between atoms: _230  and  _231
REMARK   81  A    between atoms: _233  and  _235
REMARK   82  A    between atoms: _235  and  _236
REMARK   83  A    between atoms: _239  and  _241
REMARK   84  A    between atoms: _241  and  _242
REMARK   85  A    between atoms: _241  and  _244
REMARK   86  A    between atoms: _247  and  _249
REMARK   87  A    between atoms: _249  and  _250
REMARK   88  A    between atoms: _249  and  _252
REMARK   89  A    between atoms: _252  and  _253
REMARK   90  A    between atoms: _253  and  _254
REMARK   91  A    between atoms: _259  and  _261
REMARK   92  A    between atoms: _261  and  _262
REMARK   93  A    between atoms: _261  and  _264
REMARK   94  A    between atoms: _264  and  _265
REMARK   95  A    between atoms: _268  and  _270
REMARK   96  A    between atoms: _270  and  _271
REMARK   97  A    between atoms: _274  and  _276
REMARK   98  A    between atoms: _276  and  _277
REMARK   99  A    between atoms: _276  and  _279
REMARK  100  A    between atoms: _282  and  _284
REMARK  101  A    between atoms: _284  and  _285
REMARK  102  A    between atoms: _284  and  _287
REMARK  103  A    between atoms: _287  and  _288
REMARK  104  A    between atoms: _291  and  _293
REMARK  105  A    between atoms: _293  and  _294
REMARK  106  A    between atoms: _296  and  _298
REMARK  107  A    between atoms: _298  and  _299
REMARK  108  A    between atoms: _298  and  _301
REMARK  109  A    between atoms: _301  and  _302
REMARK  110  A    between atoms: _304  and  _306
REMARK  111  A    between atoms: _306  and  _307
REMARK  112  A    between atoms: _306  and  _309
REMARK  113  A    between atoms: _309  and  _310
REMARK  114  A    between atoms: _313  and  _315
REMARK  115  A    between atoms: _315  and  _316
REMARK  116  A    between atoms: _315  and  _318
REMARK  117  A    between atoms: _318  and  _319
REMARK  118  A    between atoms: _322  and  _324
REMARK  119  A    between atoms: _324  and  _325
REMARK  120  A    between atoms: _324  and  _327
REMARK  121  A    between atoms: _327  and  _328
REMARK  122  A    between atoms: _332  and  _333
REMARK  123  A    between atoms: _339  and  _340
REMARK  124  A    between atoms: _345  and  _347
REMARK  125  A    between atoms: _347  and  _348
REMARK  126  A    between atoms: _347  and  _350
REMARK  127  A    between atoms: _350  and  _351
REMARK  128  A    between atoms: _354  and  _356
REMARK  129  A    between atoms: _356  and  _357
REMARK  130  A    between atoms: _356  and  _359
REMARK  131  A    between atoms: _359  and  _360
REMARK  132  A    between atoms: _363  and  _365
REMARK  133  A    between atoms: _365  and  _366
REMARK  134  A    between atoms: _365  and  _368
REMARK  135  A    between atoms: _370  and  _372
REMARK  136  A    between atoms: _372  and  _373
REMARK  137  A    between atoms: _372  and  _375
REMARK  138  A    between atoms: _378  and  _380
REMARK  139  A    between atoms: _380  and  _381
REMARK  140  A    between atoms: _380  and  _383
REMARK  141  A    between atoms: _383  and  _384
REMARK  142  A    between atoms: _394  and  _396
REMARK  143  A    between atoms: _396  and  _397
REMARK  144  A    between atoms: _396  and  _399
REMARK  145  A    between atoms: _399  and  _400
REMARK  146  A    between atoms: _405  and  _407
REMARK  147  A    between atoms: _407  and  _408
REMARK  148  A    between atoms: _407  and  _410
REMARK  149  A    between atoms: _410  and  _411
REMARK  150  A    between atoms: _411  and  _412
REMARK  151  A    between atoms: _412  and  _413
REMARK                            x       y       z     vdW  Elec       q    Type
REMARK                         _______ _______ _______ _____ _____    ______ ____
ROOT
ATOM      1  CA  ALA A   1      -4.536  -3.189   7.287  0.00  0.00    +0.133 C 
ATOM      2  CB  ALA A   1      -5.160  -2.965   8.662  0.00  0.00    +0.027 C 
ENDROOT
BRANCH   1   3
ATOM      3  N   ALA A   1      -3.113  -2.807   7.315  0.00  0.00    -0.239 NA
ATOM      4  H   ALA A   1      -2.814  -1.961   6.789  0.00  0.00    +0.142 HD
ENDBRANCH   1   3
BRANCH   1   5
ATOM      5  C   ALA A   1      -5.328  -2.390   6.242  0.00  0.00    +0.224 C 
ATOM      6  O   ALA A   1      -4.738  -1.771   5.366  0.00  0.00    -0.287 OA
ENDBRANCH   1   5
TORSDOF 2
REMARK  Name = ../refined-set-2016/1g46/1g46_pocket.pdb
REMARK  151 active torsions:
REMARK  status: ('A' for Active; 'I' for Inactive)
REMARK    1  A    between atoms: _1  and  _3
REMARK    2  A    between atoms: _3  and  _4
REMARK    3  A    between atoms: _3  and  _6
REMARK    4  A    between atoms: _6  and  _7
REMARK    5  A    between atoms: _17  and  _19
REMARK    6  A    between atoms: _19  and  _20
REMARK    7  A    between atoms: _19  and  _22
REMARK    8  A    between atoms: _22  and  _23
REMARK    9  A    between atoms: _28  and  _29
REMARK   10  A    between atoms: _31  and  _33
REMARK   11  A    between atoms: _33  and  _34
REMARK   12  A    between atoms: _33  and  _36
REMARK   13  A    between atoms: _36  and  _37
REMARK   14  A    between atoms: _40  and  _41
REMARK   15  A    between atoms: _46  and  _48
REMARK   16  A    between atoms: _48  and  _49
REMARK   17  A    between atoms: _48  and  _51
REMARK   18  A    between atoms: _51  and  _52
REMARK   19  A    between atoms: _57  and  _59
REMARK   20  A    between atoms: _59  and  _60
REMARK   21  A    between atoms: _63  and  _65
REMARK   22  A    between atoms: _65  and  _66
REMARK   23  A    between atoms: _65  and  _68
REMARK   24  A    between atoms: _68  and  _69
REMARK   25  A    between atoms: _74  and  _76
REMARK   26  A    between atoms: _76  and  _77
REMARK   27  A    between atoms: _76  and  _79
REMARK   28  A    between atoms: _79  and  _80
REMARK   29  A    between atoms: _83  and  _85
REMARK   30  A    between atoms: _85  and  _86
REMARK   31  A    between atoms: _85  and  _88
REMARK   32  A    between atoms: _88  and  _89
REMARK   33  A    between atoms: _89  and  _90
REMARK   34  A    between atoms: _95  and  _97
REMARK   35  A    between atoms: _97  and  _98
REMARK   36  A    between atoms: _97  and  _100
REMARK   37  A    between atoms: _100  and  _101
REMARK   38  A    between atoms: _107  and  _109
REMARK   39  A    between atoms: _120  and  _123
REMARK   40  A    between atoms: _123  and  _124
REMARK   41  A    between atoms: _132  and  _133
REMARK   42  A    between atoms: _141  and  _143
REMARK   43  A    between atoms: _143  and  _144
REMARK   44  A    between atoms: _143  and  _146
REMARK   45  A    between atoms: _146  and  _147
REMARK   46  A    between atoms: _147  and  _148
REMARK   47  A    between atoms: _151  and  _153
REMARK   48  A    between atoms: _153  and  _154
REMARK   49  A    between atoms: _153  and  _156
REMARK   50  A    between atoms: _156  and  _157
REMARK   51  A    between atoms: _162  and  _164
REMARK   52  A    between atoms: _164  and  _165
REMARK   53  A    between atoms: _164  and  _167
REMARK   54  A    between atoms: _167  and  _168
REMARK   55  A    between atoms: _168  and  _169
REMARK   56  A    between atoms: _172  and  _174
REMARK   57  A    between atoms: _174  and  _175
REMARK   58  A    between atoms: _174  and  _177
REMARK   59  A    between atoms: _177  and  _178
REMARK   60  A    between atoms: _181  and  _183
REMARK   61  A    between atoms: _183  and  _184
REMARK   62  A    between atoms: _183  and  _186
REMARK   63  A    between atoms: _186  and  _187
REMARK   64  A    between atoms: _188  and  ZN_422
REMARK   65  A    between atoms: _192  and  _194
REMARK   66  A    between atoms: _194  and  _195
REMARK   67  A    between atoms: _194  and  _197
REMARK   68  A    between atoms: _197  and  _198
REMARK   69  A    between atoms: _201  and  _203
REMARK   70  A    between atoms: _203  and  _204
REMARK   71  A    between atoms: _203  and  _206
REMARK   72  A    between atoms: _209  and  _211
REMARK   73  A    between atoms: _211  and  _212
REMARK   74  A    between atoms: _211  and  _214
REMARK   75  A    between atoms: _214  and  _215
REMARK   76  A    between atoms: _220  and  _222
REMARK   77  A    between atoms: _222  and  _223
REMARK   78  A    between atoms: _222  and  _225
REMARK   79  A    between atoms: _228  and  _230
REMARK   80  A    between atoms: _230  and  _231
REMARK   81  A    between atoms: _233  and  _235
REMARK   82  A    between atoms: _235  and  _236
REMARK   83  A    between atoms: _239  and  _241
REMARK   84  A    between atoms: _241  and  _242
REMARK   85  A    between atoms: _241  and  _244
REMARK   86  A    between atoms: _247  and  _249
REMARK   87  A    between atoms: _249  and  _250
REMARK   88  A    between atoms: _249  and  _252
REMARK   89  A    between atoms: _252  and  _253
REMARK   90  A    between atoms: _253  and  _254
REMARK   91  A    between atoms: _259  and  _261
REMARK   92  A    between atoms: _261  and  _262
REMARK   93  A    between atoms: _261  and  _264
REMARK   94  A    between atoms: _264  and  _265
REMARK   95  A    between atoms: _268  and  _270
REMARK   96  A    between atoms: _270  and  _271
REMARK   97  A    between atoms: _274  and  _276
REMARK   98  A    between atoms: _276  and  _277
REMARK   99  A    between atoms: _276  and  _279
REMARK  100  A    between atoms: _282  and  _284
REMARK  101  A    between atoms: _284  and  _285
REMARK  102  A    between atoms: _284  and  _287
REMARK  103  A    between atoms: _287  and  _288
REMARK  104  A    between atoms: _291  and  _293
REMARK  105  A    between atoms: _293  and  _294
REMARK  106  A    between atoms: _296  and  _298
REMARK  107  A    between atoms: _298  and  _299
REMARK  108  A    between atoms: _298  and  _301
REMARK  109  A    between atoms: _301  and  _302
REMARK  110  A    between atoms: _304  and  _306
REMARK  111  A    between atoms: _306  and  _307
REMARK  112  A    between atoms: _306  and  _309
REMARK  113  A    between atoms: _309  and  _310
REMARK  114  A    between atoms: _313  and  _315
REMARK  115  A    between atoms: _315  and  _316
REMARK  116  A    between atoms: _315  and  _318
REMARK  117  A    between atoms: _318  and  _319
REMARK  118  A    between atoms: _322  and  _324
REMARK  119  A    between atoms: _324  and  _325
REMARK  120  A    between atoms: _324  and  _327
REMARK  121  A    between atoms: _327  and  _328
REMARK  122  A    between atoms: _332  and  _333
REMARK  123  A    between atoms: _339  and  _340
REMARK  124  A    between atoms: _345  and  _347
REMARK  125  A    between atoms: _347  and  _348
REMARK  126  A    between atoms: _347  and  _350
REMARK  127  A    between atoms: _350  and  _351
REMARK  128  A    between atoms: _354  and  _356
REMARK  129  A    between atoms: _356  and  _357
REMARK  130  A    between atoms: _356  and  _359
REMARK  131  A    between atoms: _359  and  _360
REMARK  132  A    between atoms: _363  and  _365
REMARK  133  A    between atoms: _365  and  _366
REMARK  134  A    between atoms: _365  and  _368
REMARK  135  A    between atoms: _370  and  _372
REMARK  136  A    between atoms: _372  and  _373
REMARK  137  A    between atoms: _372  and  _375
REMARK  138  A    between atoms: _378  and  _380
REMARK  139  A    between atoms: _380  and  _381
REMARK  140  A    between atoms: _380  and  _383
REMARK  141  A    between atoms: _383  and  _384
REMARK  142  A    between atoms: _394  and  _396
REMARK  143  A    between atoms: _396  and  _397
REMARK  144  A    between atoms: _396  and  _399
REMARK  145  A    between atoms: _399  and  _400
REMARK  146  A    between atoms: _405  and  _407
REMARK  147  A    between atoms: _407  and  _408
REMARK  148  A    between atoms: _407  and  _410
REMARK  149  A    between atoms: _410  and  _411
REMARK  150  A    between atoms: _411  and  _412
REMARK  151  A    between atoms: _412  and  _413
REMARK                            x       y       z     vdW  Elec       q    Type
REMARK                         _______ _______ _______ _____ _____    ______ ____
ROOT
ATOM      1  CB  ASN A   1      -8.500   2.642   7.017  0.00  0.00    +0.110 C 
ENDROOT
BRANCH   1   2
ATOM      2  CG  ASN A   1      -7.332   2.380   7.936  0.00  0.00    +0.221 C 
ATOM      3  ND2 ASN A   1      -7.264   1.202   8.526  0.00  0.00    -0.329 N 
ATOM      4 HD21 ASN A   1      -6.484   0.993   9.181  0.00  0.00    +0.145 HD
ATOM      5 HD22 ASN A   1      -7.991   0.483   8.336  0.00  0.00    +0.145 HD
ATOM      6  OD1 ASN A   1      -6.499   3.263   8.127  0.00  0.00    -0.275 OA
ENDBRANCH   1   2
BRANCH   1   7
ATOM      7  CA  ASN A   1      -9.298   1.386   6.660  0.00  0.00    +0.142 C 
BRANCH   7   8
ATOM      8  N   ASN A   1      -8.470   0.431   5.925  0.00  0.00    -0.239 NA
ATOM      9  H   ASN A   1      -7.892   0.773   5.131  0.00  0.00    +0.142 HD
ENDBRANCH   7   8
BRANCH   7  10
ATOM     10  C   ASN A   1     -10.469   1.869   5.827  0.00  0.00    +0.225 C 
ATOM     11  O   ASN A   1     -10.332   2.075   4.624  0.00  0.00    -0.287 OA
ENDBRANCH   7  10
ENDBRANCH   1   7
TORSDOF 4
REMARK  Name = ../refined-set-2016/1g46/1g46_pocket.pdb
REMARK  151 active torsions:
REMARK  status: ('A' for Active; 'I' for Inactive)
REMARK    1  A    between atoms: _1  and  _3
REMARK    2  A    between atoms: _3  and  _4
REMARK    3  A    between atoms: _3  and  _6
REMARK    4  A    between atoms: _6  and  _7
REMARK    5  A    between atoms: _17  and  _19
REMARK    6  A    between atoms: _19  and  _20
REMARK    7  A    between atoms: _19  and  _22
REMARK    8  A    between atoms: _22  and  _23
REMARK    9  A    between atoms: _28  and  _29
REMARK   10  A    between atoms: _31  and  _33
REMARK   11  A    between atoms: _33  and  _34
REMARK   12  A    between atoms: _33  and  _36
REMARK   13  A    between atoms: _36  and  _37
REMARK   14  A    between atoms: _40  and  _41
REMARK   15  A    between atoms: _46  and  _48
REMARK   16  A    between atoms: _48  and  _49
REMARK   17  A    between atoms: _48  and  _51
REMARK   18  A    between atoms: _51  and  _52
REMARK   19  A    between atoms: _57  and  _59
REMARK   20  A    between atoms: _59  and  _60
REMARK   21  A    between atoms: _63  and  _65
REMARK   22  A    between atoms: _65  and  _66
REMARK   23  A    between atoms: _65  and  _68
REMARK   24  A    between atoms: _68  and  _69
REMARK   25  A    between atoms: _74  and  _76
REMARK   26  A    between atoms: _76  and  _77
REMARK   27  A    between atoms: _76  and  _79
REMARK   28  A    between atoms: _79  and  _80
REMARK   29  A    between atoms: _83  and  _85
REMARK   30  A    between atoms: _85  and  _86
REMARK   31  A    between atoms: _85  and  _88
REMARK   32  A    between atoms: _88  and  _89
REMARK   33  A    between atoms: _89  and  _90
REMARK   34  A    between atoms: _95  and  _97
REMARK   35  A    between atoms: _97  and  _98
REMARK   36  A    between atoms: _97  and  _100
REMARK   37  A    between atoms: _100  and  _101
REMARK   38  A    between atoms: _107  and  _109
REMARK   39  A    between atoms: _120  and  _123
REMARK   40  A    between atoms: _123  and  _124
REMARK   41  A    between atoms: _132  and  _133
REMARK   42  A    between atoms: _141  and  _143
REMARK   43  A    between atoms: _143  and  _144
REMARK   44  A    between atoms: _143  and  _146
REMARK   45  A    between atoms: _146  and  _147
REMARK   46  A    between atoms: _147  and  _148
REMARK   47  A    between atoms: _151  and  _153
REMARK   48  A    between atoms: _153  and  _154
REMARK   49  A    between atoms: _153  and  _156
REMARK   50  A    between atoms: _156  and  _157
REMARK   51  A    between atoms: _162  and  _164
REMARK   52  A    between atoms: _164  and  _165
REMARK   53  A    between atoms: _164  and  _167
REMARK   54  A    between atoms: _167  and  _168
REMARK   55  A    between atoms: _168  and  _169
REMARK   56  A    between atoms: _172  and  _174
REMARK   57  A    between atoms: _174  and  _175
REMARK   58  A    between atoms: _174  and  _177
REMARK   59  A    between atoms: _177  and  _178
REMARK   60  A    between atoms: _181  and  _183
REMARK   61  A    between atoms: _183  and  _184
REMARK   62  A    between atoms: _183  and  _186
REMARK   63  A    between atoms: _186  and  _187
REMARK   64  A    between atoms: _188  and  ZN_422
REMARK   65  A    between atoms: _192  and  _194
REMARK   66  A    between atoms: _194  and  _195
REMARK   67  A    between atoms: _194  and  _197
REMARK   68  A    between atoms: _197  and  _198
REMARK   69  A    between atoms: _201  and  _203
REMARK   70  A    between atoms: _203  and  _204
REMARK   71  A    between atoms: _203  and  _206
REMARK   72  A    between atoms: _209  and  _211
REMARK   73  A    between atoms: _211  and  _212
REMARK   74  A    between atoms: _211  and  _214
REMARK   75  A    between atoms: _214  and  _215
REMARK   76  A    between atoms: _220  and  _222
REMARK   77  A    between atoms: _222  and  _223
REMARK   78  A    between atoms: _222  and  _225
REMARK   79  A    between atoms: _228  and  _230
REMARK   80  A    between atoms: _230  and  _231
REMARK   81  A    between atoms: _233  and  _235
REMARK   82  A    between atoms: _235  and  _236
REMARK   83  A    between atoms: _239  and  _241
REMARK   84  A    between atoms: _241  and  _242
REMARK   85  A    between atoms: _241  and  _244
REMARK   86  A    between atoms: _247  and  _249
REMARK   87  A    between atoms: _249  and  _250
REMARK   88  A    between atoms: _249  and  _252
REMARK   89  A    between atoms: _252  and  _253
REMARK   90  A    between atoms: _253  and  _254
REMARK   91  A    between atoms: _259  and  _261
REMARK   92  A    between atoms: _261  and  _262
REMARK   93  A    between atoms: _261  and  _264
REMARK   94  A    between atoms: _264  and  _265
REMARK   95  A    between atoms: _268  and  _270
REMARK   96  A    between atoms: _270  and  _271
REMARK   97  A    between atoms: _274  and  _276
REMARK   98  A    between atoms: _276  and  _277
REMARK   99  A    between atoms: _276  and  _279
REMARK  100  A    between atoms: _282  and  _284
REMARK  101  A    between atoms: _284  and  _285
REMARK  102  A    between atoms: _284  and  _287
REMARK  103  A    between atoms: _287  and  _288
REMARK  104  A    between atoms: _291  and  _293
REMARK  105  A    between atoms: _293  and  _294
REMARK  106  A    between atoms: _296  and  _298
REMARK  107  A    between atoms: _298  and  _299
REMARK  108  A    between atoms: _298  and  _301
REMARK  109  A    between atoms: _301  and  _302
REMARK  110  A    between atoms: _304  and  _306
REMARK  111  A    between atoms: _306  and  _307
REMARK  112  A    between atoms: _306  and  _309
REMARK  113  A    between atoms: _309  and  _310
REMARK  114  A    between atoms: _313  and  _315
REMARK  115  A    between atoms: _315  and  _316
REMARK  116  A    between atoms: _315  and  _318
REMARK  117  A    between atoms: _318  and  _319
REMARK  118  A    between atoms: _322  and  _324
REMARK  119  A    between atoms: _324  and  _325
REMARK  120  A    between atoms: _324  and  _327
REMARK  121  A    between atoms: _327  and  _328
REMARK  122  A    between atoms: _332  and  _333
REMARK  123  A    between atoms: _339  and  _340
REMARK  124  A    between atoms: _345  and  _347
REMARK  125  A    between atoms: _347  and  _348
REMARK  126  A    between atoms: _347  and  _350
REMARK  127  A    between atoms: _350  and  _351
REMARK  128  A    between atoms: _354  and  _356
REMARK  129  A    between atoms: _356  and  _357
REMARK  130  A    between atoms: _356  and  _359
REMARK  131  A    between atoms: _359  and  _360
REMARK  132  A    between atoms: _363  and  _365
REMARK  133  A    between atoms: _365  and  _366
REMARK  134  A    between atoms: _365  and  _368
REMARK  135  A    between atoms: _370  and  _372
REMARK  136  A    between atoms: _372  and  _373
REMARK  137  A    between atoms: _372  and  _375
REMARK  138  A    between atoms: _378  and  _380
REMARK  139  A    between atoms: _380  and  _381
REMARK  140  A    between atoms: _380  and  _383
REMARK  141  A    between atoms: _383  and  _384
REMARK  142  A    between atoms: _394  and  _396
REMARK  143  A    between atoms: _396  and  _397
REMARK  144  A    between atoms: _396  and  _399
REMARK  145  A    between atoms: _399  and  _400
REMARK  146  A    between atoms: _405  and  _407
REMARK  147  A    between atoms: _407  and  _408
REMARK  148  A    between atoms: _407  and  _410
REMARK  149  A    between atoms: _410  and  _411
REMARK  150  A    between atoms: _411  and  _412
REMARK  151  A    between atoms: _412  and  _413
REMARK                            x       y       z     vdW  Elec       q    Type
REMARK                         _______ _______ _______ _____ _____    ______ ____
ROOT
ATOM      1  C   UNK A   4     -10.278  -1.344  10.371  0.00  0.00    +0.000 C 
ATOM      2  C   UNK A   4     -10.373  -2.632  11.171  0.00  0.00    +0.000 C 
ATOM      3  O   UNK A   4     -11.000  -2.673  12.233  0.00  0.00    +0.000 OA
ATOM      4  N   VAL A   5      -9.690  -3.665  10.688  0.00  0.00    +0.000 N 
ATOM      5  CA  VAL A   5      -9.693  -4.970  11.335  0.00  0.00    +0.000 C 
ATOM      6  C   VAL A   5      -8.271  -5.466  11.541  0.00  0.00    +0.000 C 
ATOM      7  N   UNK A   6      -8.152  -6.467  12.396  0.00  0.00    +0.000 N 
ATOM      8  H   UNK A   6      -9.002  -6.780  12.907  0.00  0.00    +0.000 HD
ATOM      9  C   UNK A   6      -6.899  -7.155  12.662  0.00  0.00    +0.000 C 
ATOM     10  C   UNK A   6      -6.393  -6.879  14.079  0.00  0.00    +0.000 C 
ATOM     11  C   UNK A   6      -6.061  -5.440  14.330  0.00  0.00    +0.000 A 
ATOM     12  C   UNK A   6      -6.844  -4.420  14.770  0.00  0.00    +0.000 A 
ATOM     13  N   UNK A   6      -6.087  -3.233  14.842  0.00  0.00    +0.000 N 
ATOM     14 ZN   UNK A   6      -6.880  -1.673  15.276  0.00  0.00    +0.000 Zn
ATOM     15  N   UNK A   4      -7.507  -0.742  13.881  0.00  0.00    +0.000 N 
ATOM     16  C   UNK A   4      -8.019   0.463  13.714  0.00  0.00    +0.000 A 
ATOM     17  N   UNK A   4      -8.502   0.618  12.473  0.00  0.00    +0.000 NA
ATOM     18  C   UNK A   4      -8.307  -0.559  11.787  0.00  0.00    +0.000 A 
ATOM     19  C   UNK A   4      -7.679  -1.388  12.662  0.00  0.00    +0.000 A 
ATOM     20  C   UNK A   6      -4.880  -3.577  14.442  0.00  0.00    +0.000 A 
ATOM     21  N   UNK A   6      -4.817  -4.889  14.126  0.00  0.00    +0.000 NA
ATOM     22  O   VAL A   5      -7.322  -4.982  10.933  0.00  0.00    +0.000 OA
ATOM     23  H   VAL A   5      -9.134  -3.537   9.818  0.00  0.00    +0.000 HD
ATOM     24  C   UNK A   4      -8.822  -0.818  10.405  0.00  0.00    +0.000 C 
ENDROOT
BRANCH  14  25
ATOM     25  N   UNK A   6      -8.202  -2.237  16.482  0.00  0.00    +0.000 N 
ATOM     26  C   UNK A   6      -7.897  -3.128  17.405  0.00  0.00    +0.000 A 
ATOM     27  N   UNK A   6      -8.973  -3.506  18.108  0.00  0.00    +0.000 NA
ATOM     28  C   UNK A   6     -10.045  -2.815  17.606  0.00  0.00    +0.000 A 
ATOM     29  C   UNK A   6      -9.563  -2.035  16.607  0.00  0.00    +0.000 A 
BRANCH  29  30
ATOM     30  C   UNK A   6     -10.295  -1.042  15.760  0.00  0.00    +0.000 C 
BRANCH  30  31
ATOM     31  C   UNK A   6     -11.801  -1.325  15.631  0.00  0.00    +0.000 C 
BRANCH  31  32
ATOM     32  C   UNK A   6     -12.472  -0.132  14.954  0.00  0.00    +0.000 C 
ATOM     33  N   UNK A   4     -13.420   0.473  15.671  0.00  0.00    +0.000 N 
ATOM     34  H   UNK A   4     -13.663   0.069  16.598  0.00  0.00    +0.000 HD
ATOM     35  O   UNK A   6     -12.195   0.162  13.782  0.00  0.00    +0.000 OA
BRANCH  33  36
ATOM     36  C   UNK A   4     -14.139   1.670  15.234  0.00  0.00    +0.000 C 
BRANCH  36  37
ATOM     37  C   UNK A   4     -13.488   2.809  16.035  0.00  0.00    +0.000 C 
ATOM     38  O   UNK A   4     -13.649   2.916  17.263  0.00  0.00    +0.000 OA
ATOM     39  N   VAL A   5     -12.691   3.609  15.336  0.00  0.00    +0.000 N 
ATOM     40  H   VAL A   5     -12.615   3.458  14.310  0.00  0.00    +0.000 HD
BRANCH  39  41
ATOM     41  CA  VAL A   5     -11.919   4.686  15.937  0.00  0.00    +0.000 C 
BRANCH  41  42
ATOM     42  C   VAL A   5     -12.656   6.014  15.933  0.00  0.00    +0.000 C 
ATOM     43  N   UNK A   6     -12.785   6.619  17.115  0.00  0.00    +0.000 N 
ATOM     44  H   UNK A   6     -12.386   6.160  17.959  0.00  0.00    +0.000 HD
ATOM     45  O   VAL A   5     -13.058   6.493  14.865  0.00  0.00    +0.000 OA
BRANCH  43  46
ATOM     46  C   UNK A   6     -13.466   7.903  17.267  0.00  0.00    +0.000 C 
BRANCH  46  47
ATOM     47  C   UNK A   6     -12.540   8.879  17.993  0.00  0.00    +0.000 C 
ATOM     48  O   UNK A   6     -11.709   8.461  18.799  0.00  0.00    +0.000 OA
ENDBRANCH  46  47
BRANCH  46  49
ATOM     49  C   UNK A   6     -14.730   7.761  18.119  0.00  0.00    +0.000 C 
BRANCH  49  50
ATOM     50  C   UNK A   6     -15.653   6.655  17.700  0.00  0.00    +0.000 A 
ATOM     51  N   UNK A   6     -15.365   5.322  17.906  0.00  0.00    +0.000 NA
ATOM     52  C   UNK A   6     -16.391   4.586  17.516  0.00  0.00    +0.000 A 
ATOM     53  N   UNK A   6     -17.334   5.393  17.062  0.00  0.00    +0.000 NA
ATOM     54  C   UNK A   6     -16.898   6.690  17.163  0.00  0.00    +0.000 A 
ENDBRANCH  49  50
ENDBRANCH  46  49
ENDBRANCH  43  46
ENDBRANCH  41  42
BRANCH  41  55
ATOM     55  CB  VAL A   5     -10.585   4.851  15.165  0.00  0.00    +0.000 C 
ATOM     56  CG2 VAL A   5      -9.636   5.814  15.885  0.00  0.00    +0.000 C 
ATOM     57  CG1 VAL A   5      -9.944   3.510  14.969  0.00  0.00    +0.000 C 
ENDBRANCH  41  55
ENDBRANCH  39  41
ENDBRANCH  36  37
BRANCH  36  58
ATOM     58  C   UNK A   4     -15.617   1.519  15.547  0.00  0.00    +0.000 C 
BRANCH  58  59
ATOM     59  C   UNK A   4     -16.267   0.421  14.689  0.00  0.00    +0.000 C 
ATOM     60  C   UNK A   4     -17.227  -0.429  15.490  0.00  0.00    +0.000 C 
ATOM     61  C   UNK A   4     -16.993   1.068  13.524  0.00  0.00    +0.000 C 
ENDBRANCH  58  59
ENDBRANCH  36  58
ENDBRANCH  33  36
ENDBRANCH  31  32
BRANCH  31  62
ATOM     62  N   UNK A   6     -12.049  -2.535  14.858  0.00  0.00    +0.000 N 
ATOM     63  C   LEU A   2     -12.692  -3.581  15.364  0.00  0.00    +0.000 C 
ATOM     64  O   LEU A   2     -13.043  -3.653  16.546  0.00  0.00    +0.000 OA
ATOM     65  H   UNK A   6     -11.711  -2.581  13.876  0.00  0.00    +0.000 HD
BRANCH  63  66
ATOM     66  CA  LEU A   2     -12.923  -4.744  14.416  0.00  0.00    +0.000 C 
BRANCH  66  67
ATOM     67  N   LEU A   2     -12.518  -5.972  15.083  0.00  0.00    +0.000 N 
ATOM     68  H   LEU A   2     -13.204  -6.442  15.708  0.00  0.00    +0.000 HD
ATOM     69  C   GLU A   1     -11.325  -6.522  14.937  0.00  0.00    +0.000 C 
ATOM     70  O   GLU A   1     -10.493  -6.110  14.133  0.00  0.00    +0.000 OA
BRANCH  69  71
ATOM     71  CA  GLU A   1     -11.099  -7.802  15.747  0.00  0.00    +0.000 C 
BRANCH  71  72
ATOM     72  N   GLU A   1     -10.598  -8.851  14.888  0.00  0.00    +0.000 NA
ATOM     73  H   GLU A   1      -9.949  -8.602  14.114  0.00  0.00    +0.000 HD
ENDBRANCH  71  72
BRANCH  71  74
ATOM     74  CB  GLU A   1     -10.134  -7.563  16.906  0.00  0.00    +0.000 C 
BRANCH  74  75
ATOM     75  CG  GLU A   1     -10.651  -6.599  17.968  0.00  0.00    +0.000 C 
BRANCH  75  76
ATOM     76  CD  GLU A   1      -9.753  -6.584  19.187  0.00  0.00    +0.000 C 
ATOM     77  OE2 GLU A   1      -9.603  -5.520  19.803  0.00  0.00    +0.000 OA
ATOM     78  OE1 GLU A   1      -9.199  -7.650  19.539  0.00  0.00    +0.000 OA
ENDBRANCH  75  76
ENDBRANCH  74  75
ENDBRANCH  71  74
ENDBRANCH  69  71
ENDBRANCH  66  67
BRANCH  66  79
ATOM     79  CB  LEU A   2     -14.409  -4.829  14.082  0.00  0.00    +0.000 C 
BRANCH  79  80
ATOM     80  CG  LEU A   2     -15.134  -3.553  13.689  0.00  0.00    +0.000 C 
ATOM     81  CD2 LEU A   2     -16.603  -3.897  13.542  0.00  0.00    +0.000 C 
ATOM     82  CD1 LEU A   2     -14.582  -3.004  12.389  0.00  0.00    +0.000 C 
ENDBRANCH  79  80
ENDBRANCH  66  79
ENDBRANCH  63  66
ENDBRANCH  31  62
ENDBRANCH  30  31
ENDBRANCH  29  30
ENDBRANCH  14  25
BRANCH   1  84
ATOM     83  C   UNK A   3     -11.791   0.599  10.319  0.00  0.00    +0.000 C 
ATOM     84  N   UNK A   4     -11.203  -0.392  10.988  0.00  0.00    +0.000 N 
ATOM     85  H   UNK A   4     -11.412  -0.494  12.002  0.00  0.00    +0.000 HD
ATOM     86  O   UNK A   3     -11.572   0.847   9.119  0.00  0.00    +0.000 OA
BRANCH  83  87
ATOM     87  C   UNK A   3     -12.724   1.490  11.133  0.00  0.00    +0.000 C 
BRANCH  87  90
ATOM     88  C   LEU A   2     -12.529   3.908  11.257  0.00  0.00    +0.000 C 
ATOM     89  O   LEU A   2     -12.615   3.898  12.484  0.00  0.00    +0.000 OA
ATOM     90  N   UNK A   3     -12.701   2.812  10.516  0.00  0.00    +0.000 N 
ATOM     91  H   UNK A   3     -12.820   2.901   9.487  0.00  0.00    +0.000 HD
BRANCH  88  92
ATOM     92  CA  LEU A   2     -12.368   5.234  10.503  0.00  0.00    +0.000 C 
BRANCH  92  94
ATOM     93  C   GLU A   1     -12.834   7.626  10.797  0.00  0.00    +0.000 C 
ATOM     94  N   LEU A   2     -12.630   6.420  11.335  0.00  0.00    +0.000 N 
ATOM     95  H   LEU A   2     -12.657   6.316  12.369  0.00  0.00    +0.000 HD
ATOM     96  O   GLU A   1     -12.824   7.809   9.572  0.00  0.00    +0.000 OA
BRANCH  93  97
ATOM     97  CA  GLU A   1     -13.135   8.792  11.768  0.00  0.00    +0.000 C 
BRANCH  97  98
ATOM     98  CB  GLU A   1     -11.847   9.495  12.278  0.00  0.00    +0.000 C 
ATOM     99  CG2 GLU A   1     -11.100   8.633  13.261  0.00  0.00    +0.000 C 
BRANCH  98 100
ATOM    100  CG1 GLU A   1     -10.963   9.876  11.091  0.00  0.00    +0.000 C 
ATOM    101  CD1 GLU A   1      -9.790  10.730  11.461  0.00  0.00    +0.000 C 
ENDBRANCH  98 100
ENDBRANCH  97  98
BRANCH  97 102
ATOM    102  N   GLU A   1     -13.981   8.367  12.872  0.00  0.00    +0.000 NA
ATOM    103  H   GLU A   1     -13.599   7.741  13.609  0.00  0.00    +0.000 HD
ENDBRANCH  97 102
ENDBRANCH  93  97
ENDBRANCH  92  94
BRANCH  92 104
ATOM    104  CB  LEU A   2     -10.944   5.291   9.937  0.00  0.00    +0.000 C 
BRANCH 104 105
ATOM    105  CG  LEU A   2      -9.831   5.358  10.993  0.00  0.00    +0.000 C 
BRANCH 105 106
ATOM    106  CD  LEU A   2      -9.089   4.035  11.196  0.00  0.00    +0.000 C 
ATOM    107  OE1 LEU A   2      -9.696   2.977  11.300  0.00  0.00    +0.000 OA
ATOM    108  NE2 LEU A   2      -7.768   4.100  11.251  0.00  0.00    +0.000 N 
ATOM    109 HE21 LEU A   2      -7.210   3.233  11.387  0.00  0.00    +0.000 HD
ATOM    110 HE22 LEU A   2      -7.288   5.018  11.159  0.00  0.00    +0.000 HD
ENDBRANCH 105 106
ENDBRANCH 104 105
ENDBRANCH  92 104
ENDBRANCH  88  92
ENDBRANCH  87  90
BRANCH  87 111
ATOM    111  C   UNK A   3     -14.135   0.886  11.320  0.00  0.00    +0.000 C 
BRANCH 111 112
ATOM    112  C   UNK A   3     -14.808   0.404  10.056  0.00  0.00    +0.000 A 
ATOM    113  C   UNK A   3     -15.960   1.031   9.598  0.00  0.00    +0.000 A 
ATOM    114  C   UNK A   3     -16.653   0.546   8.502  0.00  0.00    +0.000 A 
ATOM    115  C   UNK A   3     -16.193  -0.579   7.837  0.00  0.00    +0.000 A 
ATOM    116  C   UNK A   3     -15.042  -1.216   8.274  0.00  0.00    +0.000 A 
ATOM    117  C   UNK A   3     -14.357  -0.723   9.379  0.00  0.00    +0.000 A 
ENDBRANCH 111 112
ENDBRANCH  87 111
ENDBRANCH  83  87
ENDBRANCH   1  84
BRANCH   9 118
ATOM    118  C   UNK A   6      -7.363  -8.607  12.536  0.00  0.00    +0.000 C 
ATOM    119  O   UNK A   6      -8.437  -8.956  13.045  0.00  0.00    +0.000 OA
ENDBRANCH   9 118
BRANCH   5 120
ATOM    120  CB  VAL A   5     -10.383  -6.024  10.442  0.00  0.00    +0.000 C 
BRANCH 120 121
ATOM    121  CG  VAL A   5     -11.847  -5.764  10.149  0.00  0.00    +0.000 A 
ATOM    122  CD2 VAL A   5     -12.834  -6.443  10.848  0.00  0.00    +0.000 A 
ATOM    123  CE2 VAL A   5     -14.169  -6.275  10.525  0.00  0.00    +0.000 A 
ATOM    124  CZ  VAL A   5     -14.547  -5.416   9.489  0.00  0.00    +0.000 A 
ATOM    125  CE1 VAL A   5     -13.587  -4.731   8.789  0.00  0.00    +0.000 A 
ATOM    126  CD1 VAL A   5     -12.230  -4.906   9.121  0.00  0.00    +0.000 A 
ENDBRANCH 120 121
ENDBRANCH   5 120
TORSDOF 42
REMARK  Name = ../refined-set-2016/1g46/1g46_pocket.pdb
REMARK  151 active torsions:
REMARK  status: ('A' for Active; 'I' for Inactive)
REMARK    1  A    between atoms: _1  and  _3
REMARK    2  A    between atoms: _3  and  _4
REMARK    3  A    between atoms: _3  and  _6
REMARK    4  A    between atoms: _6  and  _7
REMARK    5  A    between atoms: _17  and  _19
REMARK    6  A    between atoms: _19  and  _20
REMARK    7  A    between atoms: _19  and  _22
REMARK    8  A    between atoms: _22  and  _23
REMARK    9  A    between atoms: _28  and  _29
REMARK   10  A    between atoms: _31  and  _33
REMARK   11  A    between atoms: _33  and  _34
REMARK   12  A    between atoms: _33  and  _36
REMARK   13  A    between atoms: _36  and  _37
REMARK   14  A    between atoms: _40  and  _41
REMARK   15  A    between atoms: _46  and  _48
REMARK   16  A    between atoms: _48  and  _49
REMARK   17  A    between atoms: _48  and  _51
REMARK   18  A    between atoms: _51  and  _52
REMARK   19  A    between atoms: _57  and  _59
REMARK   20  A    between atoms: _59  and  _60
REMARK   21  A    between atoms: _63  and  _65
REMARK   22  A    between atoms: _65  and  _66
REMARK   23  A    between atoms: _65  and  _68
REMARK   24  A    between atoms: _68  and  _69
REMARK   25  A    between atoms: _74  and  _76
REMARK   26  A    between atoms: _76  and  _77
REMARK   27  A    between atoms: _76  and  _79
REMARK   28  A    between atoms: _79  and  _80
REMARK   29  A    between atoms: _83  and  _85
REMARK   30  A    between atoms: _85  and  _86
REMARK   31  A    between atoms: _85  and  _88
REMARK   32  A    between atoms: _88  and  _89
REMARK   33  A    between atoms: _89  and  _90
REMARK   34  A    between atoms: _95  and  _97
REMARK   35  A    between atoms: _97  and  _98
REMARK   36  A    between atoms: _97  and  _100
REMARK   37  A    between atoms: _100  and  _101
REMARK   38  A    between atoms: _107  and  _109
REMARK   39  A    between atoms: _120  and  _123
REMARK   40  A    between atoms: _123  and  _124
REMARK   41  A    between atoms: _132  and  _133
REMARK   42  A    between atoms: _141  and  _143
REMARK   43  A    between atoms: _143  and  _144
REMARK   44  A    between atoms: _143  and  _146
REMARK   45  A    between atoms: _146  and  _147
REMARK   46  A    between atoms: _147  and  _148
REMARK   47  A    between atoms: _151  and  _153
REMARK   48  A    between atoms: _153  and  _154
REMARK   49  A    between atoms: _153  and  _156
REMARK   50  A    between atoms: _156  and  _157
REMARK   51  A    between atoms: _162  and  _164
REMARK   52  A    between atoms: _164  and  _165
REMARK   53  A    between atoms: _164  and  _167
REMARK   54  A    between atoms: _167  and  _168
REMARK   55  A    between atoms: _168  and  _169
REMARK   56  A    between atoms: _172  and  _174
REMARK   57  A    between atoms: _174  and  _175
REMARK   58  A    between atoms: _174  and  _177
REMARK   59  A    between atoms: _177  and  _178
REMARK   60  A    between atoms: _181  and  _183
REMARK   61  A    between atoms: _183  and  _184
REMARK   62  A    between atoms: _183  and  _186
REMARK   63  A    between atoms: _186  and  _187
REMARK   64  A    between atoms: _188  and  ZN_422
REMARK   65  A    between atoms: _192  and  _194
REMARK   66  A    between atoms: _194  and  _195
REMARK   67  A    between atoms: _194  and  _197
REMARK   68  A    between atoms: _197  and  _198
REMARK   69  A    between atoms: _201  and  _203
REMARK   70  A    between atoms: _203  and  _204
REMARK   71  A    between atoms: _203  and  _206
REMARK   72  A    between atoms: _209  and  _211
REMARK   73  A    between atoms: _211  and  _212
REMARK   74  A    between atoms: _211  and  _214
REMARK   75  A    between atoms: _214  and  _215
REMARK   76  A    between atoms: _220  and  _222
REMARK   77  A    between atoms: _222  and  _223
REMARK   78  A    between atoms: _222  and  _225
REMARK   79  A    between atoms: _228  and  _230
REMARK   80  A    between atoms: _230  and  _231
REMARK   81  A    between atoms: _233  and  _235
REMARK   82  A    between atoms: _235  and  _236
REMARK   83  A    between atoms: _239  and  _241
REMARK   84  A    between atoms: _241  and  _242
REMARK   85  A    between atoms: _241  and  _244
REMARK   86  A    between atoms: _247  and  _249
REMARK   87  A    between atoms: _249  and  _250
REMARK   88  A    between atoms: _249  and  _252
REMARK   89  A    between atoms: _252  and  _253
REMARK   90  A    between atoms: _253  and  _254
REMARK   91  A    between atoms: _259  and  _261
REMARK   92  A    between atoms: _261  and  _262
REMARK   93  A    between atoms: _261  and  _264
REMARK   94  A    between atoms: _264  and  _265
REMARK   95  A    between atoms: _268  and  _270
REMARK   96  A    between atoms: _270  and  _271
REMARK   97  A    between atoms: _274  and  _276
REMARK   98  A    between atoms: _276  and  _277
REMARK   99  A    between atoms: _276  and  _279
REMARK  100  A    between atoms: _282  and  _284
REMARK  101  A    between atoms: _284  and  _285
REMARK  102  A    between atoms: _284  and  _287
REMARK  103  A    between atoms: _287  and  _288
REMARK  104  A    between atoms: _291  and  _293
REMARK  105  A    between atoms: _293  and  _294
REMARK  106  A    between atoms: _296  and  _298
REMARK  107  A    between atoms: _298  and  _299
REMARK  108  A    between atoms: _298  and  _301
REMARK  109  A    between atoms: _301  and  _302
REMARK  110  A    between atoms: _304  and  _306
REMARK  111  A    between atoms: _306  and  _307
REMARK  112  A    between atoms: _306  and  _309
REMARK  113  A    between atoms: _309  and  _310
REMARK  114  A    between atoms: _313  and  _315
REMARK  115  A    between atoms: _315  and  _316
REMARK  116  A    between atoms: _315  and  _318
REMARK  117  A    between atoms: _318  and  _319
REMARK  118  A    between atoms: _322  and  _324
REMARK  119  A    between atoms: _324  and  _325
REMARK  120  A    between atoms: _324  and  _327
REMARK  121  A    between atoms: _327  and  _328
REMARK  122  A    between atoms: _332  and  _333
REMARK  123  A    between atoms: _339  and  _340
REMARK  124  A    between atoms: _345  and  _347
REMARK  125  A    between atoms: _347  and  _348
REMARK  126  A    between atoms: _347  and  _350
REMARK  127  A    between atoms: _350  and  _351
REMARK  128  A    between atoms: _354  and  _356
REMARK  129  A    between atoms: _356  and  _357
REMARK  130  A    between atoms: _356  and  _359
REMARK  131  A    between atoms: _359  and  _360
REMARK  132  A    between atoms: _363  and  _365
REMARK  133  A    between atoms: _365  and  _366
REMARK  134  A    between atoms: _365  and  _368
REMARK  135  A    between atoms: _370  and  _372
REMARK  136  A    between atoms: _372  and  _373
REMARK  137  A    between atoms: _372  and  _375
REMARK  138  A    between atoms: _378  and  _380
REMARK  139  A    between atoms: _380  and  _381
REMARK  140  A    between atoms: _380  and  _383
REMARK  141  A    between atoms: _383  and  _384
REMARK  142  A    between atoms: _394  and  _396
REMARK  143  A    between atoms: _396  and  _397
REMARK  144  A    between atoms: _396  and  _399
REMARK  145  A    between atoms: _399  and  _400
REMARK  146  A    between atoms: _405  and  _407
REMARK  147  A    between atoms: _407  and  _408
REMARK  148  A    between atoms: _407  and  _410
REMARK  149  A    between atoms: _410  and  _411
REMARK  150  A    between atoms: _411  and  _412
REMARK  151  A    between atoms: _412  and  _413
REMARK                            x       y       z     vdW  Elec       q    Type
REMARK                         _______ _______ _______ _____ _____    ______ ____
ROOT
ATOM      1  C   GLU A   1      -5.991  -8.487  21.124  0.00  0.00    +0.238 C 
ATOM      2  O   GLU A   1      -5.162  -8.931  21.903  0.00  0.00    -0.274 OA
ATOM      3  N   HIS A   2      -7.222  -8.161  21.503  0.00  0.00    -0.298 N 
ATOM      4  H   HIS A   2      -7.879  -7.739  20.816  0.00  0.00    +0.150 HD
ENDROOT
BRANCH   1   5
ATOM      5  CA  GLU A   1      -5.660  -8.266  19.661  0.00  0.00    +0.145 C 
BRANCH   5   6
ATOM      6  N   GLU A   1      -6.732  -8.891  18.898  0.00  0.00    -0.238 NA
ATOM      7  H   GLU A   1      -7.597  -8.347  18.706  0.00  0.00    +0.142 HD
ENDBRANCH   5   6
BRANCH   5   8
ATOM      8  CB  GLU A   1      -5.578  -6.780  19.309  0.00  0.00    +0.038 C 
BRANCH   8   9
ATOM      9  CG  GLU A   1      -5.289  -6.559  17.820  0.00  0.00    +0.116 C 
BRANCH   9  10
ATOM     10  CD  GLU A   1      -4.568  -5.262  17.556  0.00  0.00    +0.365 C 
ATOM     11  OE2 GLU A   1      -5.178  -4.180  17.697  0.00  0.00    -0.246 OA
ATOM     12  OE1 GLU A   1      -3.381  -5.332  17.195  0.00  0.00    -0.246 OA
ENDBRANCH   9  10
ENDBRANCH   8   9
ENDBRANCH   5   8
ENDBRANCH   1   5
BRANCH   3  13
ATOM     13  CA  HIS A   2      -7.657  -8.390  22.868  0.00  0.00    +0.143 C 
BRANCH  13  14
ATOM     14  C   HIS A   2      -8.028  -9.848  22.914  0.00  0.00    +0.227 C 
ATOM     15  O   HIS A   2      -8.347 -10.444  21.874  0.00  0.00    -0.286 OA
ENDBRANCH  13  14
BRANCH  13  16
ATOM     16  CB  HIS A   2      -8.879  -7.545  23.216  0.00  0.00    +0.075 C 
BRANCH  16  17
ATOM     17  CG  HIS A   2      -8.547  -6.116  23.473  0.00  0.00    +0.082 A 
ATOM     18  CD2 HIS A   2      -8.060  -5.499  24.577  0.00  0.00    +0.115 A 
ATOM     19  NE2 HIS A   2      -7.855  -4.185  24.245  0.00  0.00    -0.221 NA
ATOM     20  CE1 HIS A   2      -8.204  -3.998  22.986  0.00  0.00    +0.199 A 
ATOM     21  ND1 HIS A   2      -8.630  -5.149  22.495  0.00  0.00    -0.227 NA
ENDBRANCH  16  17
ENDBRANCH  13  16
ENDBRANCH   3  13
TORSDOF 9
REMARK  Name = ../refined-set-2016/1g46/1g46_pocket.pdb
REMARK  151 active torsions:
REMARK  status: ('A' for Active; 'I' for Inactive)
REMARK    1  A    between atoms: _1  and  _3
REMARK    2  A    between atoms: _3  and  _4
REMARK    3  A    between atoms: _3  and  _6
REMARK    4  A    between atoms: _6  and  _7
REMARK    5  A    between atoms: _17  and  _19
REMARK    6  A    between atoms: _19  and  _20
REMARK    7  A    between atoms: _19  and  _22
REMARK    8  A    between atoms: _22  and  _23
REMARK    9  A    between atoms: _28  and  _29
REMARK   10  A    between atoms: _31  and  _33
REMARK   11  A    between atoms: _33  and  _34
REMARK   12  A    between atoms: _33  and  _36
REMARK   13  A    between atoms: _36  and  _37
REMARK   14  A    between atoms: _40  and  _41
REMARK   15  A    between atoms: _46  and  _48
REMARK   16  A    between atoms: _48  and  _49
REMARK   17  A    between atoms: _48  and  _51
REMARK   18  A    between atoms: _51  and  _52
REMARK   19  A    between atoms: _57  and  _59
REMARK   20  A    between atoms: _59  and  _60
REMARK   21  A    between atoms: _63  and  _65
REMARK   22  A    between atoms: _65  and  _66
REMARK   23  A    between atoms: _65  and  _68
REMARK   24  A    between atoms: _68  and  _69
REMARK   25  A    between atoms: _74  and  _76
REMARK   26  A    between atoms: _76  and  _77
REMARK   27  A    between atoms: _76  and  _79
REMARK   28  A    between atoms: _79  and  _80
REMARK   29  A    between atoms: _83  and  _85
REMARK   30  A    between atoms: _85  and  _86
REMARK   31  A    between atoms: _85  and  _88
REMARK   32  A    between atoms: _88  and  _89
REMARK   33  A    between atoms: _89  and  _90
REMARK   34  A    between atoms: _95  and  _97
REMARK   35  A    between atoms: _97  and  _98
REMARK   36  A    between atoms: _97  and  _100
REMARK   37  A    between atoms: _100  and  _101
REMARK   38  A    between atoms: _107  and  _109
REMARK   39  A    between atoms: _120  and  _123
REMARK   40  A    between atoms: _123  and  _124
REMARK   41  A    between atoms: _132  and  _133
REMARK   42  A    between atoms: _141  and  _143
REMARK   43  A    between atoms: _143  and  _144
REMARK   44  A    between atoms: _143  and  _146
REMARK   45  A    between atoms: _146  and  _147
REMARK   46  A    between atoms: _147  and  _148
REMARK   47  A    between atoms: _151  and  _153
REMARK   48  A    between atoms: _153  and  _154
REMARK   49  A    between atoms: _153  and  _156
REMARK   50  A    between atoms: _156  and  _157
REMARK   51  A    between atoms: _162  and  _164
REMARK   52  A    between atoms: _164  and  _165
REMARK   53  A    between atoms: _164  and  _167
REMARK   54  A    between atoms: _167  and  _168
REMARK   55  A    between atoms: _168  and  _169
REMARK   56  A    between atoms: _172  and  _174
REMARK   57  A    between atoms: _174  and  _175
REMARK   58  A    between atoms: _174  and  _177
REMARK   59  A    between atoms: _177  and  _178
REMARK   60  A    between atoms: _181  and  _183
REMARK   61  A    between atoms: _183  and  _184
REMARK   62  A    between atoms: _183  and  _186
REMARK   63  A    between atoms: _186  and  _187
REMARK   64  A    between atoms: _188  and  ZN_422
REMARK   65  A    between atoms: _192  and  _194
REMARK   66  A    between atoms: _194  and  _195
REMARK   67  A    between atoms: _194  and  _197
REMARK   68  A    between atoms: _197  and  _198
REMARK   69  A    between atoms: _201  and  _203
REMARK   70  A    between atoms: _203  and  _204
REMARK   71  A    between atoms: _203  and  _206
REMARK   72  A    between atoms: _209  and  _211
REMARK   73  A    between atoms: _211  and  _212
REMARK   74  A    between atoms: _211  and  _214
REMARK   75  A    between atoms: _214  and  _215
REMARK   76  A    between atoms: _220  and  _222
REMARK   77  A    between atoms: _222  and  _223
REMARK   78  A    between atoms: _222  and  _225
REMARK   79  A    between atoms: _228  and  _230
REMARK   80  A    between atoms: _230  and  _231
REMARK   81  A    between atoms: _233  and  _235
REMARK   82  A    between atoms: _235  and  _236
REMARK   83  A    between atoms: _239  and  _241
REMARK   84  A    between atoms: _241  and  _242
REMARK   85  A    between atoms: _241  and  _244
REMARK   86  A    between atoms: _247  and  _249
REMARK   87  A    between atoms: _249  and  _250
REMARK   88  A    between atoms: _249  and  _252
REMARK   89  A    between atoms: _252  and  _253
REMARK   90  A    between atoms: _253  and  _254
REMARK   91  A    between atoms: _259  and  _261
REMARK   92  A    between atoms: _261  and  _262
REMARK   93  A    between atoms: _261  and  _264
REMARK   94  A    between atoms: _264  and  _265
REMARK   95  A    between atoms: _268  and  _270
REMARK   96  A    between atoms: _270  and  _271
REMARK   97  A    between atoms: _274  and  _276
REMARK   98  A    between atoms: _276  and  _277
REMARK   99  A    between atoms: _276  and  _279
REMARK  100  A    between atoms: _282  and  _284
REMARK  101  A    between atoms: _284  and  _285
REMARK  102  A    between atoms: _284  and  _287
REMARK  103  A    between atoms: _287  and  _288
REMARK  104  A    between atoms: _291  and  _293
REMARK  105  A    between atoms: _293  and  _294
REMARK  106  A    between atoms: _296  and  _298
REMARK  107  A    between atoms: _298  and  _299
REMARK  108  A    between atoms: _298  and  _301
REMARK  109  A    between atoms: _301  and  _302
REMARK  110  A    between atoms: _304  and  _306
REMARK  111  A    between atoms: _306  and  _307
REMARK  112  A    between atoms: _306  and  _309
REMARK  113  A    between atoms: _309  and  _310
REMARK  114  A    between atoms: _313  and  _315
REMARK  115  A    between atoms: _315  and  _316
REMARK  116  A    between atoms: _315  and  _318
REMARK  117  A    between atoms: _318  and  _319
REMARK  118  A    between atoms: _322  and  _324
REMARK  119  A    between atoms: _324  and  _325
REMARK  120  A    between atoms: _324  and  _327
REMARK  121  A    between atoms: _327  and  _328
REMARK  122  A    between atoms: _332  and  _333
REMARK  123  A    between atoms: _339  and  _340
REMARK  124  A    between atoms: _345  and  _347
REMARK  125  A    between atoms: _347  and  _348
REMARK  126  A    between atoms: _347  and  _350
REMARK  127  A    between atoms: _350  and  _351
REMARK  128  A    between atoms: _354  and  _356
REMARK  129  A    between atoms: _356  and  _357
REMARK  130  A    between atoms: _356  and  _359
REMARK  131  A    between atoms: _359  and  _360
REMARK  132  A    between atoms: _363  and  _365
REMARK  133  A    between atoms: _365  and  _366
REMARK  134  A    between atoms: _365  and  _368
REMARK  135  A    between atoms: _370  and  _372
REMARK  136  A    between atoms: _372  and  _373
REMARK  137  A    between atoms: _372  and  _375
REMARK  138  A    between atoms: _378  and  _380
REMARK  139  A    between atoms: _380  and  _381
REMARK  140  A    between atoms: _380  and  _383
REMARK  141  A    between atoms: _383  and  _384
REMARK  142  A    between atoms: _394  and  _396
REMARK  143  A    between atoms: _396  and  _397
REMARK  144  A    between atoms: _396  and  _399
REMARK  145  A    between atoms: _399  and  _400
REMARK  146  A    between atoms: _405  and  _407
REMARK  147  A    between atoms: _407  and  _408
REMARK  148  A    between atoms: _407  and  _410
REMARK  149  A    between atoms: _410  and  _411
REMARK  150  A    between atoms: _411  and  _412
REMARK  151  A    between atoms: _412  and  _413
REMARK                            x       y       z     vdW  Elec       q    Type
REMARK                         _______ _______ _______ _____ _____    ______ ____
ROOT
ATOM      1  C   VAL A   1      -6.107  14.350  15.842  0.00  0.00    +0.238 C 
ATOM      2  O   VAL A   1      -5.683  13.702  16.798  0.00  0.00    -0.274 OA
ATOM      3  N   GLY A   2      -5.367  15.205  15.146  0.00  0.00    -0.297 N 
ATOM      4  H   GLY A   2      -5.788  15.717  14.345  0.00  0.00    +0.150 HD
ENDROOT
BRANCH   1   5
ATOM      5  CA  VAL A   1      -7.538  14.202  15.408  0.00  0.00    +0.145 C 
BRANCH   5   6
ATOM      6  CB  VAL A   1      -7.605  13.073  14.370  0.00  0.00    +0.025 C 
ATOM      7  CG2 VAL A   1      -7.394  11.714  15.062  0.00  0.00    +0.002 C 
ATOM      8  CG1 VAL A   1      -8.922  13.089  13.676  0.00  0.00    +0.002 C 
ENDBRANCH   5   6
BRANCH   5   9
ATOM      9  N   VAL A   1      -8.150  15.450  14.943  0.00  0.00    -0.238 NA
ATOM     10  H   VAL A   1      -8.553  15.488  13.985  0.00  0.00    +0.142 HD
ENDBRANCH   5   9
ENDBRANCH   1   5
BRANCH   3  11
ATOM     11  CA  GLY A   2      -3.975  15.432  15.492  0.00  0.00    +0.163 C 
BRANCH  11  12
ATOM     12  C   GLY A   2      -3.807  15.932  16.916  0.00  0.00    +0.229 C 
ATOM     13  O   GLY A   2      -2.874  15.531  17.609  0.00  0.00    -0.286 OA
ENDBRANCH  11  12
ENDBRANCH   3  11
TORSDOF 5
REMARK  Name = ../refined-set-2016/1g46/1g46_pocket.pdb
REMARK  151 active torsions:
REMARK  status: ('A' for Active; 'I' for Inactive)
REMARK    1  A    between atoms: _1  and  _3
REMARK    2  A    between atoms: _3  and  _4
REMARK    3  A    between atoms: _3  and  _6
REMARK    4  A    between atoms: _6  and  _7
REMARK    5  A    between atoms: _17  and  _19
REMARK    6  A    between atoms: _19  and  _20
REMARK    7  A    between atoms: _19  and  _22
REMARK    8  A    between atoms: _22  and  _23
REMARK    9  A    between atoms: _28  and  _29
REMARK   10  A    between atoms: _31  and  _33
REMARK   11  A    between atoms: _33  and  _34
REMARK   12  A    between atoms: _33  and  _36
REMARK   13  A    between atoms: _36  and  _37
REMARK   14  A    between atoms: _40  and  _41
REMARK   15  A    between atoms: _46  and  _48
REMARK   16  A    between atoms: _48  and  _49
REMARK   17  A    between atoms: _48  and  _51
REMARK   18  A    between atoms: _51  and  _52
REMARK   19  A    between atoms: _57  and  _59
REMARK   20  A    between atoms: _59  and  _60
REMARK   21  A    between atoms: _63  and  _65
REMARK   22  A    between atoms: _65  and  _66
REMARK   23  A    between atoms: _65  and  _68
REMARK   24  A    between atoms: _68  and  _69
REMARK   25  A    between atoms: _74  and  _76
REMARK   26  A    between atoms: _76  and  _77
REMARK   27  A    between atoms: _76  and  _79
REMARK   28  A    between atoms: _79  and  _80
REMARK   29  A    between atoms: _83  and  _85
REMARK   30  A    between atoms: _85  and  _86
REMARK   31  A    between atoms: _85  and  _88
REMARK   32  A    between atoms: _88  and  _89
REMARK   33  A    between atoms: _89  and  _90
REMARK   34  A    between atoms: _95  and  _97
REMARK   35  A    between atoms: _97  and  _98
REMARK   36  A    between atoms: _97  and  _100
REMARK   37  A    between atoms: _100  and  _101
REMARK   38  A    between atoms: _107  and  _109
REMARK   39  A    between atoms: _120  and  _123
REMARK   40  A    between atoms: _123  and  _124
REMARK   41  A    between atoms: _132  and  _133
REMARK   42  A    between atoms: _141  and  _143
REMARK   43  A    between atoms: _143  and  _144
REMARK   44  A    between atoms: _143  and  _146
REMARK   45  A    between atoms: _146  and  _147
REMARK   46  A    between atoms: _147  and  _148
REMARK   47  A    between atoms: _151  and  _153
REMARK   48  A    between atoms: _153  and  _154
REMARK   49  A    between atoms: _153  and  _156
REMARK   50  A    between atoms: _156  and  _157
REMARK   51  A    between atoms: _162  and  _164
REMARK   52  A    between atoms: _164  and  _165
REMARK   53  A    between atoms: _164  and  _167
REMARK   54  A    between atoms: _167  and  _168
REMARK   55  A    between atoms: _168  and  _169
REMARK   56  A    between atoms: _172  and  _174
REMARK   57  A    between atoms: _174  and  _175
REMARK   58  A    between atoms: _174  and  _177
REMARK   59  A    between atoms: _177  and  _178
REMARK   60  A    between atoms: _181  and  _183
REMARK   61  A    between atoms: _183  and  _184
REMARK   62  A    between atoms: _183  and  _186
REMARK   63  A    between atoms: _186  and  _187
REMARK   64  A    between atoms: _188  and  ZN_422
REMARK   65  A    between atoms: _192  and  _194
REMARK   66  A    between atoms: _194  and  _195
REMARK   67  A    between atoms: _194  and  _197
REMARK   68  A    between atoms: _197  and  _198
REMARK   69  A    between atoms: _201  and  _203
REMARK   70  A    between atoms: _203  and  _204
REMARK   71  A    between atoms: _203  and  _206
REMARK   72  A    between atoms: _209  and  _211
REMARK   73  A    between atoms: _211  and  _212
REMARK   74  A    between atoms: _211  and  _214
REMARK   75  A    between atoms: _214  and  _215
REMARK   76  A    between atoms: _220  and  _222
REMARK   77  A    between atoms: _222  and  _223
REMARK   78  A    between atoms: _222  and  _225
REMARK   79  A    between atoms: _228  and  _230
REMARK   80  A    between atoms: _230  and  _231
REMARK   81  A    between atoms: _233  and  _235
REMARK   82  A    between atoms: _235  and  _236
REMARK   83  A    between atoms: _239  and  _241
REMARK   84  A    between atoms: _241  and  _242
REMARK   85  A    between atoms: _241  and  _244
REMARK   86  A    between atoms: _247  and  _249
REMARK   87  A    between atoms: _249  and  _250
REMARK   88  A    between atoms: _249  and  _252
REMARK   89  A    between atoms: _252  and  _253
REMARK   90  A    between atoms: _253  and  _254
REMARK   91  A    between atoms: _259  and  _261
REMARK   92  A    between atoms: _261  and  _262
REMARK   93  A    between atoms: _261  and  _264
REMARK   94  A    between atoms: _264  and  _265
REMARK   95  A    between atoms: _268  and  _270
REMARK   96  A    between atoms: _270  and  _271
REMARK   97  A    between atoms: _274  and  _276
REMARK   98  A    between atoms: _276  and  _277
REMARK   99  A    between atoms: _276  and  _279
REMARK  100  A    between atoms: _282  and  _284
REMARK  101  A    between atoms: _284  and  _285
REMARK  102  A    between atoms: _284  and  _287
REMARK  103  A    between atoms: _287  and  _288
REMARK  104  A    between atoms: _291  and  _293
REMARK  105  A    between atoms: _293  and  _294
REMARK  106  A    between atoms: _296  and  _298
REMARK  107  A    between atoms: _298  and  _299
REMARK  108  A    between atoms: _298  and  _301
REMARK  109  A    between atoms: _301  and  _302
REMARK  110  A    between atoms: _304  and  _306
REMARK  111  A    between atoms: _306  and  _307
REMARK  112  A    between atoms: _306  and  _309
REMARK  113  A    between atoms: _309  and  _310
REMARK  114  A    between atoms: _313  and  _315
REMARK  115  A    between atoms: _315  and  _316
REMARK  116  A    between atoms: _315  and  _318
REMARK  117  A    between atoms: _318  and  _319
REMARK  118  A    between atoms: _322  and  _324
REMARK  119  A    between atoms: _324  and  _325
REMARK  120  A    between atoms: _324  and  _327
REMARK  121  A    between atoms: _327  and  _328
REMARK  122  A    between atoms: _332  and  _333
REMARK  123  A    between atoms: _339  and  _340
REMARK  124  A    between atoms: _345  and  _347
REMARK  125  A    between atoms: _347  and  _348
REMARK  126  A    between atoms: _347  and  _350
REMARK  127  A    between atoms: _350  and  _351
REMARK  128  A    between atoms: _354  and  _356
REMARK  129  A    between atoms: _356  and  _357
REMARK  130  A    between atoms: _356  and  _359
REMARK  131  A    between atoms: _359  and  _360
REMARK  132  A    between atoms: _363  and  _365
REMARK  133  A    between atoms: _365  and  _366
REMARK  134  A    between atoms: _365  and  _368
REMARK  135  A    between atoms: _370  and  _372
REMARK  136  A    between atoms: _372  and  _373
REMARK  137  A    between atoms: _372  and  _375
REMARK  138  A    between atoms: _378  and  _380
REMARK  139  A    between atoms: _380  and  _381
REMARK  140  A    between atoms: _380  and  _383
REMARK  141  A    between atoms: _383  and  _384
REMARK  142  A    between atoms: _394  and  _396
REMARK  143  A    between atoms: _396  and  _397
REMARK  144  A    between atoms: _396  and  _399
REMARK  145  A    between atoms: _399  and  _400
REMARK  146  A    between atoms: _405  and  _407
REMARK  147  A    between atoms: _407  and  _408
REMARK  148  A    between atoms: _407  and  _410
REMARK  149  A    between atoms: _410  and  _411
REMARK  150  A    between atoms: _411  and  _412
REMARK  151  A    between atoms: _412  and  _413
REMARK                            x       y       z     vdW  Elec       q    Type
REMARK                         _______ _______ _______ _____ _____    ______ ____
ROOT
ATOM      1  C   VAL A   2      -2.902  12.353  21.067  0.00  0.00    +0.241 C 
ATOM      2  O   VAL A   2      -2.330  11.502  21.751  0.00  0.00    -0.273 OA
ATOM      3  N   GLN A   3      -2.745  13.656  21.261  0.00  0.00    -0.298 N 
ATOM      4  H   GLN A   3      -3.291  14.321  20.677  0.00  0.00    +0.150 HD
ENDROOT
BRANCH   1   5
ATOM      5  CA  VAL A   2      -3.897  11.941  19.988  0.00  0.00    +0.148 C 
BRANCH   5   8
ATOM      6  C   ALA A   1      -5.716  13.422  20.601  0.00  0.00    +0.238 C 
ATOM      7  O   ALA A   1      -5.714  12.970  21.749  0.00  0.00    -0.274 OA
ATOM      8  N   VAL A   2      -4.859  13.000  19.670  0.00  0.00    -0.297 N 
ATOM      9  H   VAL A   2      -4.873  13.422  18.720  0.00  0.00    +0.150 HD
BRANCH   6  10
ATOM     10  CA  ALA A   1      -6.717  14.511  20.214  0.00  0.00    +0.145 C 
ATOM     11  CB  ALA A   1      -7.942  13.888  19.538  0.00  0.00    +0.028 C 
BRANCH  10  12
ATOM     12  N   ALA A   1      -6.155  15.560  19.373  0.00  0.00    -0.238 NA
ATOM     13  H   ALA A   1      -6.620  15.779  18.469  0.00  0.00    +0.142 HD
ENDBRANCH  10  12
ENDBRANCH   6  10
ENDBRANCH   5   8
BRANCH   5  14
ATOM     14  CB  VAL A   2      -3.148  11.380  18.735  0.00  0.00    +0.027 C 
ATOM     15  CG2 VAL A   2      -2.417  12.487  17.991  0.00  0.00    +0.002 C 
ATOM     16  CG1 VAL A   2      -4.120  10.669  17.814  0.00  0.00    +0.002 C 
ENDBRANCH   5  14
ENDBRANCH   1   5
BRANCH   3  17
ATOM     17  CA  GLN A   3      -1.832  14.185  22.267  0.00  0.00    +0.137 C 
BRANCH  17  18
ATOM     18  C   GLN A   3      -2.501  14.292  23.650  0.00  0.00    +0.227 C 
ATOM     19  O   GLN A   3      -1.931  14.871  24.581  0.00  0.00    -0.286 OA
ENDBRANCH  17  18
BRANCH  17  20
ATOM     20  CB  GLN A   3      -1.331  15.575  21.829  0.00  0.00    +0.037 C 
BRANCH  20  21
ATOM     21  CG  GLN A   3      -0.641  15.617  20.471  0.00  0.00    +0.087 C 
BRANCH  21  22
ATOM     22  CD  GLN A   3      -0.343  17.036  20.006  0.00  0.00    +0.219 C 
ATOM     23  NE2 GLN A   3       0.129  17.875  20.916  0.00  0.00    -0.329 N 
ATOM     24 HE21 GLN A   3       0.268  17.555  21.896  0.00  0.00    +0.145 HD
ATOM     25 HE22 GLN A   3       0.361  18.853  20.651  0.00  0.00    +0.145 HD
ATOM     26  OE1 GLN A   3      -0.524  17.367  18.836  0.00  0.00    -0.275 OA
ENDBRANCH  21  22
ENDBRANCH  20  21
ENDBRANCH  17  20
ENDBRANCH   3  17
TORSDOF 10
REMARK  Name = ../refined-set-2016/1g46/1g46_pocket.pdb
REMARK  151 active torsions:
REMARK  status: ('A' for Active; 'I' for Inactive)
REMARK    1  A    between atoms: _1  and  _3
REMARK    2  A    between atoms: _3  and  _4
REMARK    3  A    between atoms: _3  and  _6
REMARK    4  A    between atoms: _6  and  _7
REMARK    5  A    between atoms: _17  and  _19
REMARK    6  A    between atoms: _19  and  _20
REMARK    7  A    between atoms: _19  and  _22
REMARK    8  A    between atoms: _22  and  _23
REMARK    9  A    between atoms: _28  and  _29
REMARK   10  A    between atoms: _31  and  _33
REMARK   11  A    between atoms: _33  and  _34
REMARK   12  A    between atoms: _33  and  _36
REMARK   13  A    between atoms: _36  and  _37
REMARK   14  A    between atoms: _40  and  _41
REMARK   15  A    between atoms: _46  and  _48
REMARK   16  A    between atoms: _48  and  _49
REMARK   17  A    between atoms: _48  and  _51
REMARK   18  A    between atoms: _51  and  _52
REMARK   19  A    between atoms: _57  and  _59
REMARK   20  A    between atoms: _59  and  _60
REMARK   21  A    between atoms: _63  and  _65
REMARK   22  A    between atoms: _65  and  _66
REMARK   23  A    between atoms: _65  and  _68
REMARK   24  A    between atoms: _68  and  _69
REMARK   25  A    between atoms: _74  and  _76
REMARK   26  A    between atoms: _76  and  _77
REMARK   27  A    between atoms: _76  and  _79
REMARK   28  A    between atoms: _79  and  _80
REMARK   29  A    between atoms: _83  and  _85
REMARK   30  A    between atoms: _85  and  _86
REMARK   31  A    between atoms: _85  and  _88
REMARK   32  A    between atoms: _88  and  _89
REMARK   33  A    between atoms: _89  and  _90
REMARK   34  A    between atoms: _95  and  _97
REMARK   35  A    between atoms: _97  and  _98
REMARK   36  A    between atoms: _97  and  _100
REMARK   37  A    between atoms: _100  and  _101
REMARK   38  A    between atoms: _107  and  _109
REMARK   39  A    between atoms: _120  and  _123
REMARK   40  A    between atoms: _123  and  _124
REMARK   41  A    between atoms: _132  and  _133
REMARK   42  A    between atoms: _141  and  _143
REMARK   43  A    between atoms: _143  and  _144
REMARK   44  A    between atoms: _143  and  _146
REMARK   45  A    between atoms: _146  and  _147
REMARK   46  A    between atoms: _147  and  _148
REMARK   47  A    between atoms: _151  and  _153
REMARK   48  A    between atoms: _153  and  _154
REMARK   49  A    between atoms: _153  and  _156
REMARK   50  A    between atoms: _156  and  _157
REMARK   51  A    between atoms: _162  and  _164
REMARK   52  A    between atoms: _164  and  _165
REMARK   53  A    between atoms: _164  and  _167
REMARK   54  A    between atoms: _167  and  _168
REMARK   55  A    between atoms: _168  and  _169
REMARK   56  A    between atoms: _172  and  _174
REMARK   57  A    between atoms: _174  and  _175
REMARK   58  A    between atoms: _174  and  _177
REMARK   59  A    between atoms: _177  and  _178
REMARK   60  A    between atoms: _181  and  _183
REMARK   61  A    between atoms: _183  and  _184
REMARK   62  A    between atoms: _183  and  _186
REMARK   63  A    between atoms: _186  and  _187
REMARK   64  A    between atoms: _188  and  ZN_422
REMARK   65  A    between atoms: _192  and  _194
REMARK   66  A    between atoms: _194  and  _195
REMARK   67  A    between atoms: _194  and  _197
REMARK   68  A    between atoms: _197  and  _198
REMARK   69  A    between atoms: _201  and  _203
REMARK   70  A    between atoms: _203  and  _204
REMARK   71  A    between atoms: _203  and  _206
REMARK   72  A    between atoms: _209  and  _211
REMARK   73  A    between atoms: _211  and  _212
REMARK   74  A    between atoms: _211  and  _214
REMARK   75  A    between atoms: _214  and  _215
REMARK   76  A    between atoms: _220  and  _222
REMARK   77  A    between atoms: _222  and  _223
REMARK   78  A    between atoms: _222  and  _225
REMARK   79  A    between atoms: _228  and  _230
REMARK   80  A    between atoms: _230  and  _231
REMARK   81  A    between atoms: _233  and  _235
REMARK   82  A    between atoms: _235  and  _236
REMARK   83  A    between atoms: _239  and  _241
REMARK   84  A    between atoms: _241  and  _242
REMARK   85  A    between atoms: _241  and  _244
REMARK   86  A    between atoms: _247  and  _249
REMARK   87  A    between atoms: _249  and  _250
REMARK   88  A    between atoms: _249  and  _252
REMARK   89  A    between atoms: _252  and  _253
REMARK   90  A    between atoms: _253  and  _254
REMARK   91  A    between atoms: _259  and  _261
REMARK   92  A    between atoms: _261  and  _262
REMARK   93  A    between atoms: _261  and  _264
REMARK   94  A    between atoms: _264  and  _265
REMARK   95  A    between atoms: _268  and  _270
REMARK   96  A    between atoms: _270  and  _271
REMARK   97  A    between atoms: _274  and  _276
REMARK   98  A    between atoms: _276  and  _277
REMARK   99  A    between atoms: _276  and  _279
REMARK  100  A    between atoms: _282  and  _284
REMARK  101  A    between atoms: _284  and  _285
REMARK  102  A    between atoms: _284  and  _287
REMARK  103  A    between atoms: _287  and  _288
REMARK  104  A    between atoms: _291  and  _293
REMARK  105  A    between atoms: _293  and  _294
REMARK  106  A    between atoms: _296  and  _298
REMARK  107  A    between atoms: _298  and  _299
REMARK  108  A    between atoms: _298  and  _301
REMARK  109  A    between atoms: _301  and  _302
REMARK  110  A    between atoms: _304  and  _306
REMARK  111  A    between atoms: _306  and  _307
REMARK  112  A    between atoms: _306  and  _309
REMARK  113  A    between atoms: _309  and  _310
REMARK  114  A    between atoms: _313  and  _315
REMARK  115  A    between atoms: _315  and  _316
REMARK  116  A    between atoms: _315  and  _318
REMARK  117  A    between atoms: _318  and  _319
REMARK  118  A    between atoms: _322  and  _324
REMARK  119  A    between atoms: _324  and  _325
REMARK  120  A    between atoms: _324  and  _327
REMARK  121  A    between atoms: _327  and  _328
REMARK  122  A    between atoms: _332  and  _333
REMARK  123  A    between atoms: _339  and  _340
REMARK  124  A    between atoms: _345  and  _347
REMARK  125  A    between atoms: _347  and  _348
REMARK  126  A    between atoms: _347  and  _350
REMARK  127  A    between atoms: _350  and  _351
REMARK  128  A    between atoms: _354  and  _356
REMARK  129  A    between atoms: _356  and  _357
REMARK  130  A    between atoms: _356  and  _359
REMARK  131  A    between atoms: _359  and  _360
REMARK  132  A    between atoms: _363  and  _365
REMARK  133  A    between atoms: _365  and  _366
REMARK  134  A    between atoms: _365  and  _368
REMARK  135  A    between atoms: _370  and  _372
REMARK  136  A    between atoms: _372  and  _373
REMARK  137  A    between atoms: _372  and  _375
REMARK  138  A    between atoms: _378  and  _380
REMARK  139  A    between atoms: _380  and  _381
REMARK  140  A    between atoms: _380  and  _383
REMARK  141  A    between atoms: _383  and  _384
REMARK  142  A    between atoms: _394  and  _396
REMARK  143  A    between atoms: _396  and  _397
REMARK  144  A    between atoms: _396  and  _399
REMARK  145  A    between atoms: _399  and  _400
REMARK  146  A    between atoms: _405  and  _407
REMARK  147  A    between atoms: _407  and  _408
REMARK  148  A    between atoms: _407  and  _410
REMARK  149  A    between atoms: _410  and  _411
REMARK  150  A    between atoms: _411  and  _412
REMARK  151  A    between atoms: _412  and  _413
REMARK                            x       y       z     vdW  Elec       q    Type
REMARK                         _______ _______ _______ _____ _____    ______ ____
ROOT
ATOM      1  CA  VAL A   3     -12.020   2.797  20.112  0.00  0.00    +0.149 C 
ENDROOT
BRANCH   1   3
ATOM      2  C   ALA A   2     -12.359   5.056  20.887  0.00  0.00    +0.241 C 
ATOM      3  N   VAL A   3     -11.914   3.832  21.139  0.00  0.00    -0.297 N 
ATOM      4  H   VAL A   3     -11.492   3.610  22.063  0.00  0.00    +0.150 HD
ATOM      5  O   ALA A   2     -12.731   5.415  19.758  0.00  0.00    -0.273 OA
BRANCH   2   6
ATOM      6  CA  ALA A   2     -12.238   6.067  22.005  0.00  0.00    +0.149 C 
ATOM      7  CB  ALA A   2     -13.611   6.613  22.372  0.00  0.00    +0.031 C 
BRANCH   6  10
ATOM      8  C   LEU A   1     -10.397   7.675  22.133  0.00  0.00    +0.238 C 
ATOM      9  O   LEU A   1     -10.152   7.412  23.308  0.00  0.00    -0.274 OA
ATOM     10  N   ALA A   2     -11.382   7.112  21.448  0.00  0.00    -0.297 N 
ATOM     11  H   ALA A   2     -11.553   7.428  20.472  0.00  0.00    +0.150 HD
BRANCH   8  12
ATOM     12  CA  LEU A   1      -9.580   8.691  21.370  0.00  0.00    +0.145 C 
BRANCH  12  13
ATOM     13  N   LEU A   1      -8.896   9.671  22.219  0.00  0.00    -0.238 NA
ATOM     14  H   LEU A   1      -8.227   9.343  22.944  0.00  0.00    +0.142 HD
ENDBRANCH  12  13
BRANCH  12  15
ATOM     15  CB  LEU A   1      -8.583   7.921  20.511  0.00  0.00    +0.026 C 
BRANCH  15  16
ATOM     16  CG  LEU A   1      -7.737   8.663  19.486  0.00  0.00    +0.002 C 
ATOM     17  CD2 LEU A   1      -6.938   7.631  18.704  0.00  0.00    +0.000 C 
ATOM     18  CD1 LEU A   1      -8.590   9.479  18.550  0.00  0.00    +0.000 C 
ENDBRANCH  15  16
ENDBRANCH  12  15
ENDBRANCH   8  12
ENDBRANCH   6  10
ENDBRANCH   2   6
ENDBRANCH   1   3
BRANCH   1  19
ATOM     19  C   VAL A   3     -12.980   1.724  20.582  0.00  0.00    +0.241 C 
ATOM     20  O   VAL A   3     -12.876   1.240  21.707  0.00  0.00    -0.273 OA
ATOM     21  N   LEU A   4     -13.943   1.414  19.726  0.00  0.00    -0.297 N 
ATOM     22  H   LEU A   4     -13.983   1.918  18.817  0.00  0.00    +0.150 HD
BRANCH  21  23
ATOM     23  CA  LEU A   4     -14.949   0.396  20.005  0.00  0.00    +0.149 C 
BRANCH  23  24
ATOM     24  C   LEU A   4     -14.392  -0.875  19.369  0.00  0.00    +0.241 C 
ATOM     25  N   GLY A   5     -14.089  -1.867  20.196  0.00  0.00    -0.296 N 
ATOM     26  H   GLY A   5     -14.243  -1.739  21.217  0.00  0.00    +0.150 HD
ATOM     27  O   LEU A   4     -14.148  -0.907  18.169  0.00  0.00    -0.273 OA
BRANCH  25  28
ATOM     28  CA  GLY A   5     -13.549  -3.126  19.717  0.00  0.00    +0.163 C 
BRANCH  28  29
ATOM     29  C   GLY A   5     -14.614  -4.208  19.704  0.00  0.00    +0.229 C 
ATOM     30  O   GLY A   5     -15.319  -4.429  20.701  0.00  0.00    -0.286 OA
ENDBRANCH  28  29
ENDBRANCH  25  28
ENDBRANCH  23  24
BRANCH  23  31
ATOM     31  CB  LEU A   4     -16.260   0.798  19.334  0.00  0.00    +0.029 C 
BRANCH  31  32
ATOM     32  CG  LEU A   4     -17.597   0.256  19.815  0.00  0.00    +0.002 C 
ATOM     33  CD2 LEU A   4     -17.810   0.675  21.244  0.00  0.00    +0.000 C 
ATOM     34  CD1 LEU A   4     -18.699   0.827  18.931  0.00  0.00    +0.000 C 
ENDBRANCH  31  32
ENDBRANCH  23  31
ENDBRANCH  21  23
ENDBRANCH   1  19
BRANCH   1  35
ATOM     35  CB  VAL A   3     -10.670   2.123  19.763  0.00  0.00    +0.027 C 
ATOM     36  CG2 VAL A   3      -9.635   3.172  19.381  0.00  0.00    +0.002 C 
ATOM     37  CG1 VAL A   3     -10.883   1.117  18.606  0.00  0.00    +0.002 C 
ENDBRANCH   1  35
TORSDOF 15
REMARK  Name = ../refined-set-2016/1g46/1g46_pocket.pdb
REMARK  151 active torsions:
REMARK  status: ('A' for Active; 'I' for Inactive)
REMARK    1  A    between atoms: _1  and  _3
REMARK    2  A    between atoms: _3  and  _4
REMARK    3  A    between atoms: _3  and  _6
REMARK    4  A    between atoms: _6  and  _7
REMARK    5  A    between atoms: _17  and  _19
REMARK    6  A    between atoms: _19  and  _20
REMARK    7  A    between atoms: _19  and  _22
REMARK    8  A    between atoms: _22  and  _23
REMARK    9  A    between atoms: _28  and  _29
REMARK   10  A    between atoms: _31  and  _33
REMARK   11  A    between atoms: _33  and  _34
REMARK   12  A    between atoms: _33  and  _36
REMARK   13  A    between atoms: _36  and  _37
REMARK   14  A    between atoms: _40  and  _41
REMARK   15  A    between atoms: _46  and  _48
REMARK   16  A    between atoms: _48  and  _49
REMARK   17  A    between atoms: _48  and  _51
REMARK   18  A    between atoms: _51  and  _52
REMARK   19  A    between atoms: _57  and  _59
REMARK   20  A    between atoms: _59  and  _60
REMARK   21  A    between atoms: _63  and  _65
REMARK   22  A    between atoms: _65  and  _66
REMARK   23  A    between atoms: _65  and  _68
REMARK   24  A    between atoms: _68  and  _69
REMARK   25  A    between atoms: _74  and  _76
REMARK   26  A    between atoms: _76  and  _77
REMARK   27  A    between atoms: _76  and  _79
REMARK   28  A    between atoms: _79  and  _80
REMARK   29  A    between atoms: _83  and  _85
REMARK   30  A    between atoms: _85  and  _86
REMARK   31  A    between atoms: _85  and  _88
REMARK   32  A    between atoms: _88  and  _89
REMARK   33  A    between atoms: _89  and  _90
REMARK   34  A    between atoms: _95  and  _97
REMARK   35  A    between atoms: _97  and  _98
REMARK   36  A    between atoms: _97  and  _100
REMARK   37  A    between atoms: _100  and  _101
REMARK   38  A    between atoms: _107  and  _109
REMARK   39  A    between atoms: _120  and  _123
REMARK   40  A    between atoms: _123  and  _124
REMARK   41  A    between atoms: _132  and  _133
REMARK   42  A    between atoms: _141  and  _143
REMARK   43  A    between atoms: _143  and  _144
REMARK   44  A    between atoms: _143  and  _146
REMARK   45  A    between atoms: _146  and  _147
REMARK   46  A    between atoms: _147  and  _148
REMARK   47  A    between atoms: _151  and  _153
REMARK   48  A    between atoms: _153  and  _154
REMARK   49  A    between atoms: _153  and  _156
REMARK   50  A    between atoms: _156  and  _157
REMARK   51  A    between atoms: _162  and  _164
REMARK   52  A    between atoms: _164  and  _165
REMARK   53  A    between atoms: _164  and  _167
REMARK   54  A    between atoms: _167  and  _168
REMARK   55  A    between atoms: _168  and  _169
REMARK   56  A    between atoms: _172  and  _174
REMARK   57  A    between atoms: _174  and  _175
REMARK   58  A    between atoms: _174  and  _177
REMARK   59  A    between atoms: _177  and  _178
REMARK   60  A    between atoms: _181  and  _183
REMARK   61  A    between atoms: _183  and  _184
REMARK   62  A    between atoms: _183  and  _186
REMARK   63  A    between atoms: _186  and  _187
REMARK   64  A    between atoms: _188  and  ZN_422
REMARK   65  A    between atoms: _192  and  _194
REMARK   66  A    between atoms: _194  and  _195
REMARK   67  A    between atoms: _194  and  _197
REMARK   68  A    between atoms: _197  and  _198
REMARK   69  A    between atoms: _201  and  _203
REMARK   70  A    between atoms: _203  and  _204
REMARK   71  A    between atoms: _203  and  _206
REMARK   72  A    between atoms: _209  and  _211
REMARK   73  A    between atoms: _211  and  _212
REMARK   74  A    between atoms: _211  and  _214
REMARK   75  A    between atoms: _214  and  _215
REMARK   76  A    between atoms: _220  and  _222
REMARK   77  A    between atoms: _222  and  _223
REMARK   78  A    between atoms: _222  and  _225
REMARK   79  A    between atoms: _228  and  _230
REMARK   80  A    between atoms: _230  and  _231
REMARK   81  A    between atoms: _233  and  _235
REMARK   82  A    between atoms: _235  and  _236
REMARK   83  A    between atoms: _239  and  _241
REMARK   84  A    between atoms: _241  and  _242
REMARK   85  A    between atoms: _241  and  _244
REMARK   86  A    between atoms: _247  and  _249
REMARK   87  A    between atoms: _249  and  _250
REMARK   88  A    between atoms: _249  and  _252
REMARK   89  A    between atoms: _252  and  _253
REMARK   90  A    between atoms: _253  and  _254
REMARK   91  A    between atoms: _259  and  _261
REMARK   92  A    between atoms: _261  and  _262
REMARK   93  A    between atoms: _261  and  _264
REMARK   94  A    between atoms: _264  and  _265
REMARK   95  A    between atoms: _268  and  _270
REMARK   96  A    between atoms: _270  and  _271
REMARK   97  A    between atoms: _274  and  _276
REMARK   98  A    between atoms: _276  and  _277
REMARK   99  A    between atoms: _276  and  _279
REMARK  100  A    between atoms: _282  and  _284
REMARK  101  A    between atoms: _284  and  _285
REMARK  102  A    between atoms: _284  and  _287
REMARK  103  A    between atoms: _287  and  _288
REMARK  104  A    between atoms: _291  and  _293
REMARK  105  A    between atoms: _293  and  _294
REMARK  106  A    between atoms: _296  and  _298
REMARK  107  A    between atoms: _298  and  _299
REMARK  108  A    between atoms: _298  and  _301
REMARK  109  A    between atoms: _301  and  _302
REMARK  110  A    between atoms: _304  and  _306
REMARK  111  A    between atoms: _306  and  _307
REMARK  112  A    between atoms: _306  and  _309
REMARK  113  A    between atoms: _309  and  _310
REMARK  114  A    between atoms: _313  and  _315
REMARK  115  A    between atoms: _315  and  _316
REMARK  116  A    between atoms: _315  and  _318
REMARK  117  A    between atoms: _318  and  _319
REMARK  118  A    between atoms: _322  and  _324
REMARK  119  A    between atoms: _324  and  _325
REMARK  120  A    between atoms: _324  and  _327
REMARK  121  A    between atoms: _327  and  _328
REMARK  122  A    between atoms: _332  and  _333
REMARK  123  A    between atoms: _339  and  _340
REMARK  124  A    between atoms: _345  and  _347
REMARK  125  A    between atoms: _347  and  _348
REMARK  126  A    between atoms: _347  and  _350
REMARK  127  A    between atoms: _350  and  _351
REMARK  128  A    between atoms: _354  and  _356
REMARK  129  A    between atoms: _356  and  _357
REMARK  130  A    between atoms: _356  and  _359
REMARK  131  A    between atoms: _359  and  _360
REMARK  132  A    between atoms: _363  and  _365
REMARK  133  A    between atoms: _365  and  _366
REMARK  134  A    between atoms: _365  and  _368
REMARK  135  A    between atoms: _370  and  _372
REMARK  136  A    between atoms: _372  and  _373
REMARK  137  A    between atoms: _372  and  _375
REMARK  138  A    between atoms: _378  and  _380
REMARK  139  A    between atoms: _380  and  _381
REMARK  140  A    between atoms: _380  and  _383
REMARK  141  A    between atoms: _383  and  _384
REMARK  142  A    between atoms: _394  and  _396
REMARK  143  A    between atoms: _396  and  _397
REMARK  144  A    between atoms: _396  and  _399
REMARK  145  A    between atoms: _399  and  _400
REMARK  146  A    between atoms: _405  and  _407
REMARK  147  A    between atoms: _407  and  _408
REMARK  148  A    between atoms: _407  and  _410
REMARK  149  A    between atoms: _410  and  _411
REMARK  150  A    between atoms: _411  and  _412
REMARK  151  A    between atoms: _412  and  _413
REMARK                            x       y       z     vdW  Elec       q    Type
REMARK                         _______ _______ _______ _____ _____    ______ ____
ROOT
ATOM      1  C   THR A   4       0.945   1.440  16.520  0.00  0.00    +0.246 C 
ATOM      2  O   THR A   4       0.491   2.353  17.246  0.00  0.00    -0.273 OA
ATOM      3  N   PRO A   5       2.188   1.491  16.020  0.00  0.00    -0.272 N 
ATOM      4  CA  PRO A   5       2.991   2.701  16.189  0.00  0.00    +0.152 C 
ATOM      5  CB  PRO A   5       4.190   2.421  15.284  0.00  0.00    +0.031 C 
ATOM      6  CG  PRO A   5       4.406   0.968  15.482  0.00  0.00    +0.024 C 
ATOM      7  CD  PRO A   5       2.990   0.411  15.415  0.00  0.00    +0.094 C 
ENDROOT
BRANCH   4   8
ATOM      8  C   PRO A   5       2.138   3.848  15.644  0.00  0.00    +0.244 C 
ATOM      9  N   PRO A   6       2.256   5.050  16.219  0.00  0.00    -0.272 N 
ATOM     10  CA  PRO A   6       3.131   5.426  17.331  0.00  0.00    +0.152 C 
ATOM     11  CB  PRO A   6       3.187   6.945  17.209  0.00  0.00    +0.031 C 
ATOM     12  CG  PRO A   6       1.827   7.295  16.699  0.00  0.00    +0.024 C 
ATOM     13  CD  PRO A   6       1.510   6.215  15.700  0.00  0.00    +0.094 C 
ATOM     14  O   PRO A   5       1.434   3.675  14.650  0.00  0.00    -0.273 OA
BRANCH  10  15
ATOM     15  C   PRO A   6       2.796   4.942  18.760  0.00  0.00    +0.241 C 
ATOM     16  O   PRO A   6       3.456   5.353  19.713  0.00  0.00    -0.273 OA
ATOM     17  N   LEU A   7       1.767   4.103  18.907  0.00  0.00    -0.297 N 
ATOM     18  H   LEU A   7       1.205   3.845  18.071  0.00  0.00    +0.150 HD
BRANCH  17  19
ATOM     19  CA  LEU A   7       1.403   3.532  20.215  0.00  0.00    +0.149 C 
BRANCH  19  20
ATOM     20  C   LEU A   7       1.094   4.559  21.321  0.00  0.00    +0.241 C 
ATOM     21  O   LEU A   7       1.312   4.304  22.517  0.00  0.00    -0.273 OA
ATOM     22  N   LEU A   8       0.512   5.684  20.922  0.00  0.00    -0.298 N 
ATOM     23  H   LEU A   8       0.285   5.805  19.914  0.00  0.00    +0.150 HD
BRANCH  22  24
ATOM     24  CA  LEU A   8       0.183   6.753  21.855  0.00  0.00    +0.137 C 
BRANCH  24  25
ATOM     25  C   LEU A   8      -0.849   6.291  22.889  0.00  0.00    +0.227 C 
ATOM     26  O   LEU A   8      -1.800   5.583  22.561  0.00  0.00    -0.286 OA
ENDBRANCH  24  25
BRANCH  24  27
ATOM     27  CB  LEU A   8      -0.307   7.972  21.069  0.00  0.00    +0.028 C 
BRANCH  27  28
ATOM     28  CG  LEU A   8       0.729   8.481  20.056  0.00  0.00    +0.002 C 
ATOM     29  CD2 LEU A   8       2.002   8.976  20.783  0.00  0.00    +0.000 C 
ATOM     30  CD1 LEU A   8       0.125   9.598  19.201  0.00  0.00    +0.000 C 
ENDBRANCH  27  28
ENDBRANCH  24  27
ENDBRANCH  22  24
ENDBRANCH  19  20
BRANCH  19  31
ATOM     31  CB  LEU A   7       2.522   2.590  20.674  0.00  0.00    +0.029 C 
BRANCH  31  32
ATOM     32  CG  LEU A   7       2.848   1.452  19.698  0.00  0.00    +0.002 C 
ATOM     33  CD2 LEU A   7       1.870   0.298  19.885  0.00  0.00    +0.000 C 
ATOM     34  CD1 LEU A   7       4.282   0.986  19.883  0.00  0.00    +0.000 C 
ENDBRANCH  31  32
ENDBRANCH  19  31
ENDBRANCH  17  19
ENDBRANCH  10  15
ENDBRANCH   4   8
BRANCH   1  35
ATOM     35  CA  THR A   4       0.152   0.148  16.285  0.00  0.00    +0.176 C 
BRANCH  35  38
ATOM     36  C   THR A   3      -1.036  -1.016  18.070  0.00  0.00    +0.243 C 
ATOM     37  O   THR A   3      -0.450  -2.075  17.853  0.00  0.00    -0.273 OA
ATOM     38  N   THR A   4      -0.863   0.077  17.329  0.00  0.00    -0.295 N 
ATOM     39  H   THR A   4      -1.470   0.904  17.500  0.00  0.00    +0.150 HD
BRANCH  36  40
ATOM     40  CA  THR A   3      -2.077  -0.922  19.165  0.00  0.00    +0.176 C 
BRANCH  40  43
ATOM     41  C   LEU A   2      -2.352   1.343  19.955  0.00  0.00    +0.241 C 
ATOM     42  O   LEU A   2      -1.367   1.222  20.698  0.00  0.00    -0.273 OA
ATOM     43  N   THR A   3      -2.762   0.363  19.153  0.00  0.00    -0.295 N 
ATOM     44  H   THR A   3      -3.571   0.515  18.518  0.00  0.00    +0.150 HD
BRANCH  41  45
ATOM     45  CA  LEU A   2      -3.117   2.679  19.925  0.00  0.00    +0.149 C 
BRANCH  45  48
ATOM     46  C   SER A   1      -3.547   2.484  22.326  0.00  0.00    +0.241 C 
ATOM     47  O   SER A   1      -4.354   1.567  22.175  0.00  0.00    -0.274 OA
ATOM     48  N   LEU A   2      -2.949   3.116  21.313  0.00  0.00    -0.297 N 
ATOM     49  H   LEU A   2      -2.348   3.940  21.515  0.00  0.00    +0.150 HD
BRANCH  46  50
ATOM     50  CA  SER A   1      -3.185   2.978  23.721  0.00  0.00    +0.174 C 
BRANCH  50  51
ATOM     51  N   SER A   1      -3.937   2.319  24.783  0.00  0.00    -0.236 NA
ATOM     52  H   SER A   1      -4.184   1.314  24.679  0.00  0.00    +0.142 HD
ENDBRANCH  50  51
BRANCH  50  53
ATOM     53  CB  SER A   1      -1.701   2.659  23.929  0.00  0.00    +0.163 C 
BRANCH  53  54
ATOM     54  OG  SER A   1      -1.410   1.314  23.542  0.00  0.00    -0.380 OA
ATOM     55  H   SER A   1      -1.631   1.192  22.585  0.00  0.00    +0.211 HD
ENDBRANCH  53  54
ENDBRANCH  50  53
ENDBRANCH  46  50
ENDBRANCH  45  48
BRANCH  45  56
ATOM     56  CB  LEU A   2      -2.377   3.627  18.969  0.00  0.00    +0.029 C 
BRANCH  56  57
ATOM     57  CG  LEU A   2      -2.822   5.088  18.967  0.00  0.00    +0.002 C 
ATOM     58  CD2 LEU A   2      -4.286   5.160  18.613  0.00  0.00    +0.000 C 
ATOM     59  CD1 LEU A   2      -1.992   5.875  17.973  0.00  0.00    +0.000 C 
ENDBRANCH  56  57
ENDBRANCH  45  56
ENDBRANCH  41  45
ENDBRANCH  40  43
BRANCH  40  60
ATOM     60  CB  THR A   3      -3.050  -2.103  19.049  0.00  0.00    +0.137 C 
ATOM     61  CG2 THR A   3      -4.106  -2.072  20.161  0.00  0.00    +0.034 C 
BRANCH  60  62
ATOM     62  OG1 THR A   3      -3.670  -2.075  17.766  0.00  0.00    -0.382 OA
ATOM     63  HG1 THR A   3      -4.299  -2.836  17.688  0.00  0.00    +0.210 HD
ENDBRANCH  60  62
ENDBRANCH  40  60
ENDBRANCH  36  40
ENDBRANCH  35  38
BRANCH  35  64
ATOM     64  CB  THR A   4      -0.457   0.189  14.848  0.00  0.00    +0.137 C 
ATOM     65  CG2 THR A   4      -1.386  -0.993  14.606  0.00  0.00    +0.034 C 
BRANCH  64  66
ATOM     66  OG1 THR A   4      -1.199   1.399  14.671  0.00  0.00    -0.382 OA
ATOM     67  HG1 THR A   4      -0.597   2.175  14.794  0.00  0.00    +0.210 HD
ENDBRANCH  64  66
ENDBRANCH  35  64
ENDBRANCH   1  35
TORSDOF 26
REMARK  Name = ../refined-set-2016/1g46/1g46_pocket.pdb
REMARK  151 active torsions:
REMARK  status: ('A' for Active; 'I' for Inactive)
REMARK    1  A    between atoms: _1  and  _3
REMARK    2  A    between atoms: _3  and  _4
REMARK    3  A    between atoms: _3  and  _6
REMARK    4  A    between atoms: _6  and  _7
REMARK    5  A    between atoms: _17  and  _19
REMARK    6  A    between atoms: _19  and  _20
REMARK    7  A    between atoms: _19  and  _22
REMARK    8  A    between atoms: _22  and  _23
REMARK    9  A    between atoms: _28  and  _29
REMARK   10  A    between atoms: _31  and  _33
REMARK   11  A    between atoms: _33  and  _34
REMARK   12  A    between atoms: _33  and  _36
REMARK   13  A    between atoms: _36  and  _37
REMARK   14  A    between atoms: _40  and  _41
REMARK   15  A    between atoms: _46  and  _48
REMARK   16  A    between atoms: _48  and  _49
REMARK   17  A    between atoms: _48  and  _51
REMARK   18  A    between atoms: _51  and  _52
REMARK   19  A    between atoms: _57  and  _59
REMARK   20  A    between atoms: _59  and  _60
REMARK   21  A    between atoms: _63  and  _65
REMARK   22  A    between atoms: _65  and  _66
REMARK   23  A    between atoms: _65  and  _68
REMARK   24  A    between atoms: _68  and  _69
REMARK   25  A    between atoms: _74  and  _76
REMARK   26  A    between atoms: _76  and  _77
REMARK   27  A    between atoms: _76  and  _79
REMARK   28  A    between atoms: _79  and  _80
REMARK   29  A    between atoms: _83  and  _85
REMARK   30  A    between atoms: _85  and  _86
REMARK   31  A    between atoms: _85  and  _88
REMARK   32  A    between atoms: _88  and  _89
REMARK   33  A    between atoms: _89  and  _90
REMARK   34  A    between atoms: _95  and  _97
REMARK   35  A    between atoms: _97  and  _98
REMARK   36  A    between atoms: _97  and  _100
REMARK   37  A    between atoms: _100  and  _101
REMARK   38  A    between atoms: _107  and  _109
REMARK   39  A    between atoms: _120  and  _123
REMARK   40  A    between atoms: _123  and  _124
REMARK   41  A    between atoms: _132  and  _133
REMARK   42  A    between atoms: _141  and  _143
REMARK   43  A    between atoms: _143  and  _144
REMARK   44  A    between atoms: _143  and  _146
REMARK   45  A    between atoms: _146  and  _147
REMARK   46  A    between atoms: _147  and  _148
REMARK   47  A    between atoms: _151  and  _153
REMARK   48  A    between atoms: _153  and  _154
REMARK   49  A    between atoms: _153  and  _156
REMARK   50  A    between atoms: _156  and  _157
REMARK   51  A    between atoms: _162  and  _164
REMARK   52  A    between atoms: _164  and  _165
REMARK   53  A    between atoms: _164  and  _167
REMARK   54  A    between atoms: _167  and  _168
REMARK   55  A    between atoms: _168  and  _169
REMARK   56  A    between atoms: _172  and  _174
REMARK   57  A    between atoms: _174  and  _175
REMARK   58  A    between atoms: _174  and  _177
REMARK   59  A    between atoms: _177  and  _178
REMARK   60  A    between atoms: _181  and  _183
REMARK   61  A    between atoms: _183  and  _184
REMARK   62  A    between atoms: _183  and  _186
REMARK   63  A    between atoms: _186  and  _187
REMARK   64  A    between atoms: _188  and  ZN_422
REMARK   65  A    between atoms: _192  and  _194
REMARK   66  A    between atoms: _194  and  _195
REMARK   67  A    between atoms: _194  and  _197
REMARK   68  A    between atoms: _197  and  _198
REMARK   69  A    between atoms: _201  and  _203
REMARK   70  A    between atoms: _203  and  _204
REMARK   71  A    between atoms: _203  and  _206
REMARK   72  A    between atoms: _209  and  _211
REMARK   73  A    between atoms: _211  and  _212
REMARK   74  A    between atoms: _211  and  _214
REMARK   75  A    between atoms: _214  and  _215
REMARK   76  A    between atoms: _220  and  _222
REMARK   77  A    between atoms: _222  and  _223
REMARK   78  A    between atoms: _222  and  _225
REMARK   79  A    between atoms: _228  and  _230
REMARK   80  A    between atoms: _230  and  _231
REMARK   81  A    between atoms: _233  and  _235
REMARK   82  A    between atoms: _235  and  _236
REMARK   83  A    between atoms: _239  and  _241
REMARK   84  A    between atoms: _241  and  _242
REMARK   85  A    between atoms: _241  and  _244
REMARK   86  A    between atoms: _247  and  _249
REMARK   87  A    between atoms: _249  and  _250
REMARK   88  A    between atoms: _249  and  _252
REMARK   89  A    between atoms: _252  and  _253
REMARK   90  A    between atoms: _253  and  _254
REMARK   91  A    between atoms: _259  and  _261
REMARK   92  A    between atoms: _261  and  _262
REMARK   93  A    between atoms: _261  and  _264
REMARK   94  A    between atoms: _264  and  _265
REMARK   95  A    between atoms: _268  and  _270
REMARK   96  A    between atoms: _270  and  _271
REMARK   97  A    between atoms: _274  and  _276
REMARK   98  A    between atoms: _276  and  _277
REMARK   99  A    between atoms: _276  and  _279
REMARK  100  A    between atoms: _282  and  _284
REMARK  101  A    between atoms: _284  and  _285
REMARK  102  A    between atoms: _284  and  _287
REMARK  103  A    between atoms: _287  and  _288
REMARK  104  A    between atoms: _291  and  _293
REMARK  105  A    between atoms: _293  and  _294
REMARK  106  A    between atoms: _296  and  _298
REMARK  107  A    between atoms: _298  and  _299
REMARK  108  A    between atoms: _298  and  _301
REMARK  109  A    between atoms: _301  and  _302
REMARK  110  A    between atoms: _304  and  _306
REMARK  111  A    between atoms: _306  and  _307
REMARK  112  A    between atoms: _306  and  _309
REMARK  113  A    between atoms: _309  and  _310
REMARK  114  A    between atoms: _313  and  _315
REMARK  115  A    between atoms: _315  and  _316
REMARK  116  A    between atoms: _315  and  _318
REMARK  117  A    between atoms: _318  and  _319
REMARK  118  A    between atoms: _322  and  _324
REMARK  119  A    between atoms: _324  and  _325
REMARK  120  A    between atoms: _324  and  _327
REMARK  121  A    between atoms: _327  and  _328
REMARK  122  A    between atoms: _332  and  _333
REMARK  123  A    between atoms: _339  and  _340
REMARK  124  A    between atoms: _345  and  _347
REMARK  125  A    between atoms: _347  and  _348
REMARK  126  A    between atoms: _347  and  _350
REMARK  127  A    between atoms: _350  and  _351
REMARK  128  A    between atoms: _354  and  _356
REMARK  129  A    between atoms: _356  and  _357
REMARK  130  A    between atoms: _356  and  _359
REMARK  131  A    between atoms: _359  and  _360
REMARK  132  A    between atoms: _363  and  _365
REMARK  133  A    between atoms: _365  and  _366
REMARK  134  A    between atoms: _365  and  _368
REMARK  135  A    between atoms: _370  and  _372
REMARK  136  A    between atoms: _372  and  _373
REMARK  137  A    between atoms: _372  and  _375
REMARK  138  A    between atoms: _378  and  _380
REMARK  139  A    between atoms: _380  and  _381
REMARK  140  A    between atoms: _380  and  _383
REMARK  141  A    between atoms: _383  and  _384
REMARK  142  A    between atoms: _394  and  _396
REMARK  143  A    between atoms: _396  and  _397
REMARK  144  A    between atoms: _396  and  _399
REMARK  145  A    between atoms: _399  and  _400
REMARK  146  A    between atoms: _405  and  _407
REMARK  147  A    between atoms: _407  and  _408
REMARK  148  A    between atoms: _407  and  _410
REMARK  149  A    between atoms: _410  and  _411
REMARK  150  A    between atoms: _411  and  _412
REMARK  151  A    between atoms: _412  and  _413
REMARK                            x       y       z     vdW  Elec       q    Type
REMARK                         _______ _______ _______ _____ _____    ______ ____
ROOT
ATOM      1  C   CYS A   1      -5.964   7.682  24.130  0.00  0.00    +0.239 C 
ATOM      2  N   VAL A   2      -6.039   6.377  24.341  0.00  0.00    -0.298 N 
ATOM      3  H   VAL A   2      -5.202   5.860  24.677  0.00  0.00    +0.150 HD
ATOM      4  O   CYS A   1      -6.949   8.372  23.884  0.00  0.00    -0.274 OA
ENDROOT
BRANCH   1   5
ATOM      5  CA  CYS A   1      -4.592   8.321  24.307  0.00  0.00    +0.156 C 
BRANCH   5   6
ATOM      6  N   CYS A   1      -3.517   7.345  24.344  0.00  0.00    -0.237 NA
ATOM      7  H   CYS A   1      -3.417   6.667  23.562  0.00  0.00    +0.142 HD
ENDBRANCH   5   6
BRANCH   5   8
ATOM      8  CB  CYS A   1      -4.318   9.252  23.132  0.00  0.00    +0.095 C 
ATOM      9  SG  CYS A   1      -4.082   8.324  21.595  0.00  0.00    -0.080 S 
ENDBRANCH   5   8
ENDBRANCH   1   5
BRANCH   2  10
ATOM     10  CA  VAL A   2      -7.283   5.662  24.107  0.00  0.00    +0.137 C 
BRANCH  10  11
ATOM     11  CB  VAL A   2      -7.047   4.457  23.152  0.00  0.00    +0.026 C 
ATOM     12  CG2 VAL A   2      -8.392   3.853  22.715  0.00  0.00    +0.002 C 
ATOM     13  CG1 VAL A   2      -6.212   4.870  21.958  0.00  0.00    +0.002 C 
ENDBRANCH  10  11
BRANCH  10  14
ATOM     14  C   VAL A   2      -8.086   5.115  25.272  0.00  0.00    +0.227 C 
ATOM     15  O   VAL A   2      -7.555   4.507  26.206  0.00  0.00    -0.286 OA
ENDBRANCH  10  14
ENDBRANCH   2  10
TORSDOF 6
REMARK  Name = ../refined-set-2016/1g46/1g46_pocket.pdb
REMARK  151 active torsions:
REMARK  status: ('A' for Active; 'I' for Inactive)
REMARK    1  A    between atoms: _1  and  _3
REMARK    2  A    between atoms: _3  and  _4
REMARK    3  A    between atoms: _3  and  _6
REMARK    4  A    between atoms: _6  and  _7
REMARK    5  A    between atoms: _17  and  _19
REMARK    6  A    between atoms: _19  and  _20
REMARK    7  A    between atoms: _19  and  _22
REMARK    8  A    between atoms: _22  and  _23
REMARK    9  A    between atoms: _28  and  _29
REMARK   10  A    between atoms: _31  and  _33
REMARK   11  A    between atoms: _33  and  _34
REMARK   12  A    between atoms: _33  and  _36
REMARK   13  A    between atoms: _36  and  _37
REMARK   14  A    between atoms: _40  and  _41
REMARK   15  A    between atoms: _46  and  _48
REMARK   16  A    between atoms: _48  and  _49
REMARK   17  A    between atoms: _48  and  _51
REMARK   18  A    between atoms: _51  and  _52
REMARK   19  A    between atoms: _57  and  _59
REMARK   20  A    between atoms: _59  and  _60
REMARK   21  A    between atoms: _63  and  _65
REMARK   22  A    between atoms: _65  and  _66
REMARK   23  A    between atoms: _65  and  _68
REMARK   24  A    between atoms: _68  and  _69
REMARK   25  A    between atoms: _74  and  _76
REMARK   26  A    between atoms: _76  and  _77
REMARK   27  A    between atoms: _76  and  _79
REMARK   28  A    between atoms: _79  and  _80
REMARK   29  A    between atoms: _83  and  _85
REMARK   30  A    between atoms: _85  and  _86
REMARK   31  A    between atoms: _85  and  _88
REMARK   32  A    between atoms: _88  and  _89
REMARK   33  A    between atoms: _89  and  _90
REMARK   34  A    between atoms: _95  and  _97
REMARK   35  A    between atoms: _97  and  _98
REMARK   36  A    between atoms: _97  and  _100
REMARK   37  A    between atoms: _100  and  _101
REMARK   38  A    between atoms: _107  and  _109
REMARK   39  A    between atoms: _120  and  _123
REMARK   40  A    between atoms: _123  and  _124
REMARK   41  A    between atoms: _132  and  _133
REMARK   42  A    between atoms: _141  and  _143
REMARK   43  A    between atoms: _143  and  _144
REMARK   44  A    between atoms: _143  and  _146
REMARK   45  A    between atoms: _146  and  _147
REMARK   46  A    between atoms: _147  and  _148
REMARK   47  A    between atoms: _151  and  _153
REMARK   48  A    between atoms: _153  and  _154
REMARK   49  A    between atoms: _153  and  _156
REMARK   50  A    between atoms: _156  and  _157
REMARK   51  A    between atoms: _162  and  _164
REMARK   52  A    between atoms: _164  and  _165
REMARK   53  A    between atoms: _164  and  _167
REMARK   54  A    between atoms: _167  and  _168
REMARK   55  A    between atoms: _168  and  _169
REMARK   56  A    between atoms: _172  and  _174
REMARK   57  A    between atoms: _174  and  _175
REMARK   58  A    between atoms: _174  and  _177
REMARK   59  A    between atoms: _177  and  _178
REMARK   60  A    between atoms: _181  and  _183
REMARK   61  A    between atoms: _183  and  _184
REMARK   62  A    between atoms: _183  and  _186
REMARK   63  A    between atoms: _186  and  _187
REMARK   64  A    between atoms: _188  and  ZN_422
REMARK   65  A    between atoms: _192  and  _194
REMARK   66  A    between atoms: _194  and  _195
REMARK   67  A    between atoms: _194  and  _197
REMARK   68  A    between atoms: _197  and  _198
REMARK   69  A    between atoms: _201  and  _203
REMARK   70  A    between atoms: _203  and  _204
REMARK   71  A    between atoms: _203  and  _206
REMARK   72  A    between atoms: _209  and  _211
REMARK   73  A    between atoms: _211  and  _212
REMARK   74  A    between atoms: _211  and  _214
REMARK   75  A    between atoms: _214  and  _215
REMARK   76  A    between atoms: _220  and  _222
REMARK   77  A    between atoms: _222  and  _223
REMARK   78  A    between atoms: _222  and  _225
REMARK   79  A    between atoms: _228  and  _230
REMARK   80  A    between atoms: _230  and  _231
REMARK   81  A    between atoms: _233  and  _235
REMARK   82  A    between atoms: _235  and  _236
REMARK   83  A    between atoms: _239  and  _241
REMARK   84  A    between atoms: _241  and  _242
REMARK   85  A    between atoms: _241  and  _244
REMARK   86  A    between atoms: _247  and  _249
REMARK   87  A    between atoms: _249  and  _250
REMARK   88  A    between atoms: _249  and  _252
REMARK   89  A    between atoms: _252  and  _253
REMARK   90  A    between atoms: _253  and  _254
REMARK   91  A    between atoms: _259  and  _261
REMARK   92  A    between atoms: _261  and  _262
REMARK   93  A    between atoms: _261  and  _264
REMARK   94  A    between atoms: _264  and  _265
REMARK   95  A    between atoms: _268  and  _270
REMARK   96  A    between atoms: _270  and  _271
REMARK   97  A    between atoms: _274  and  _276
REMARK   98  A    between atoms: _276  and  _277
REMARK   99  A    between atoms: _276  and  _279
REMARK  100  A    between atoms: _282  and  _284
REMARK  101  A    between atoms: _284  and  _285
REMARK  102  A    between atoms: _284  and  _287
REMARK  103  A    between atoms: _287  and  _288
REMARK  104  A    between atoms: _291  and  _293
REMARK  105  A    between atoms: _293  and  _294
REMARK  106  A    between atoms: _296  and  _298
REMARK  107  A    between atoms: _298  and  _299
REMARK  108  A    between atoms: _298  and  _301
REMARK  109  A    between atoms: _301  and  _302
REMARK  110  A    between atoms: _304  and  _306
REMARK  111  A    between atoms: _306  and  _307
REMARK  112  A    between atoms: _306  and  _309
REMARK  113  A    between atoms: _309  and  _310
REMARK  114  A    between atoms: _313  and  _315
REMARK  115  A    between atoms: _315  and  _316
REMARK  116  A    between atoms: _315  and  _318
REMARK  117  A    between atoms: _318  and  _319
REMARK  118  A    between atoms: _322  and  _324
REMARK  119  A    between atoms: _324  and  _325
REMARK  120  A    between atoms: _324  and  _327
REMARK  121  A    between atoms: _327  and  _328
REMARK  122  A    between atoms: _332  and  _333
REMARK  123  A    between atoms: _339  and  _340
REMARK  124  A    between atoms: _345  and  _347
REMARK  125  A    between atoms: _347  and  _348
REMARK  126  A    between atoms: _347  and  _350
REMARK  127  A    between atoms: _350  and  _351
REMARK  128  A    between atoms: _354  and  _356
REMARK  129  A    between atoms: _356  and  _357
REMARK  130  A    between atoms: _356  and  _359
REMARK  131  A    between atoms: _359  and  _360
REMARK  132  A    between atoms: _363  and  _365
REMARK  133  A    between atoms: _365  and  _366
REMARK  134  A    between atoms: _365  and  _368
REMARK  135  A    between atoms: _370  and  _372
REMARK  136  A    between atoms: _372  and  _373
REMARK  137  A    between atoms: _372  and  _375
REMARK  138  A    between atoms: _378  and  _380
REMARK  139  A    between atoms: _380  and  _381
REMARK  140  A    between atoms: _380  and  _383
REMARK  141  A    between atoms: _383  and  _384
REMARK  142  A    between atoms: _394  and  _396
REMARK  143  A    between atoms: _396  and  _397
REMARK  144  A    between atoms: _396  and  _399
REMARK  145  A    between atoms: _399  and  _400
REMARK  146  A    between atoms: _405  and  _407
REMARK  147  A    between atoms: _407  and  _408
REMARK  148  A    between atoms: _407  and  _410
REMARK  149  A    between atoms: _410  and  _411
REMARK  150  A    between atoms: _411  and  _412
REMARK  151  A    between atoms: _412  and  _413
REMARK                            x       y       z     vdW  Elec       q    Type
REMARK                         _______ _______ _______ _____ _____    ______ ____
ROOT
ATOM      1  CG  TRP A   1      -8.826   0.197  24.235  0.00  0.00    -0.002 A 
ATOM      2  CD1 TRP A   1      -7.586   0.736  24.420  0.00  0.00    +0.068 A 
ATOM      3  NE1 TRP A   1      -6.862   0.664  23.248  0.00  0.00    -0.352 N 
ATOM      4  HE1 TRP A   1      -5.890   1.009  23.116  0.00  0.00    +0.166 HD
ATOM      5  CE2 TRP A   1      -7.632   0.063  22.285  0.00  0.00    +0.056 A 
ATOM      6  CZ2 TRP A   1      -7.340  -0.239  20.946  0.00  0.00    +0.017 A 
ATOM      7  CH2 TRP A   1      -8.312  -0.855  20.211  0.00  0.00    +0.001 A 
ATOM      8  CZ3 TRP A   1      -9.553  -1.176  20.767  0.00  0.00    +0.000 A 
ATOM      9  CE3 TRP A   1      -9.847  -0.875  22.094  0.00  0.00    +0.001 A 
ATOM     10  CD2 TRP A   1      -8.874  -0.246  22.872  0.00  0.00    +0.013 A 
ENDROOT
BRANCH   1  11
ATOM     11  CB  TRP A   1      -9.937   0.111  25.231  0.00  0.00    +0.053 C 
BRANCH  11  12
ATOM     12  CA  TRP A   1     -10.982   1.228  25.060  0.00  0.00    +0.137 C 
BRANCH  12  13
ATOM     13  N   TRP A   1     -10.542   2.421  25.747  0.00  0.00    -0.239 NA
ATOM     14  H   TRP A   1      -9.940   2.330  26.590  0.00  0.00    +0.142 HD
ENDBRANCH  12  13
BRANCH  12  15
ATOM     15  C   TRP A   1     -12.339   0.756  25.538  0.00  0.00    +0.224 C 
ATOM     16  O   TRP A   1     -12.591   0.656  26.741  0.00  0.00    -0.287 OA
ENDBRANCH  12  15
ENDBRANCH  11  12
ENDBRANCH   1  11
TORSDOF 4
REMARK  Name = ../refined-set-2016/1g46/1g46_pocket.pdb
REMARK  151 active torsions:
REMARK  status: ('A' for Active; 'I' for Inactive)
REMARK    1  A    between atoms: _1  and  _3
REMARK    2  A    between atoms: _3  and  _4
REMARK    3  A    between atoms: _3  and  _6
REMARK    4  A    between atoms: _6  and  _7
REMARK    5  A    between atoms: _17  and  _19
REMARK    6  A    between atoms: _19  and  _20
REMARK    7  A    between atoms: _19  and  _22
REMARK    8  A    between atoms: _22  and  _23
REMARK    9  A    between atoms: _28  and  _29
REMARK   10  A    between atoms: _31  and  _33
REMARK   11  A    between atoms: _33  and  _34
REMARK   12  A    between atoms: _33  and  _36
REMARK   13  A    between atoms: _36  and  _37
REMARK   14  A    between atoms: _40  and  _41
REMARK   15  A    between atoms: _46  and  _48
REMARK   16  A    between atoms: _48  and  _49
REMARK   17  A    between atoms: _48  and  _51
REMARK   18  A    between atoms: _51  and  _52
REMARK   19  A    between atoms: _57  and  _59
REMARK   20  A    between atoms: _59  and  _60
REMARK   21  A    between atoms: _63  and  _65
REMARK   22  A    between atoms: _65  and  _66
REMARK   23  A    between atoms: _65  and  _68
REMARK   24  A    between atoms: _68  and  _69
REMARK   25  A    between atoms: _74  and  _76
REMARK   26  A    between atoms: _76  and  _77
REMARK   27  A    between atoms: _76  and  _79
REMARK   28  A    between atoms: _79  and  _80
REMARK   29  A    between atoms: _83  and  _85
REMARK   30  A    between atoms: _85  and  _86
REMARK   31  A    between atoms: _85  and  _88
REMARK   32  A    between atoms: _88  and  _89
REMARK   33  A    between atoms: _89  and  _90
REMARK   34  A    between atoms: _95  and  _97
REMARK   35  A    between atoms: _97  and  _98
REMARK   36  A    between atoms: _97  and  _100
REMARK   37  A    between atoms: _100  and  _101
REMARK   38  A    between atoms: _107  and  _109
REMARK   39  A    between atoms: _120  and  _123
REMARK   40  A    between atoms: _123  and  _124
REMARK   41  A    between atoms: _132  and  _133
REMARK   42  A    between atoms: _141  and  _143
REMARK   43  A    between atoms: _143  and  _144
REMARK   44  A    between atoms: _143  and  _146
REMARK   45  A    between atoms: _146  and  _147
REMARK   46  A    between atoms: _147  and  _148
REMARK   47  A    between atoms: _151  and  _153
REMARK   48  A    between atoms: _153  and  _154
REMARK   49  A    between atoms: _153  and  _156
REMARK   50  A    between atoms: _156  and  _157
REMARK   51  A    between atoms: _162  and  _164
REMARK   52  A    between atoms: _164  and  _165
REMARK   53  A    between atoms: _164  and  _167
REMARK   54  A    between atoms: _167  and  _168
REMARK   55  A    between atoms: _168  and  _169
REMARK   56  A    between atoms: _172  and  _174
REMARK   57  A    between atoms: _174  and  _175
REMARK   58  A    between atoms: _174  and  _177
REMARK   59  A    between atoms: _177  and  _178
REMARK   60  A    between atoms: _181  and  _183
REMARK   61  A    between atoms: _183  and  _184
REMARK   62  A    between atoms: _183  and  _186
REMARK   63  A    between atoms: _186  and  _187
REMARK   64  A    between atoms: _188  and  ZN_422
REMARK   65  A    between atoms: _192  and  _194
REMARK   66  A    between atoms: _194  and  _195
REMARK   67  A    between atoms: _194  and  _197
REMARK   68  A    between atoms: _197  and  _198
REMARK   69  A    between atoms: _201  and  _203
REMARK   70  A    between atoms: _203  and  _204
REMARK   71  A    between atoms: _203  and  _206
REMARK   72  A    between atoms: _209  and  _211
REMARK   73  A    between atoms: _211  and  _212
REMARK   74  A    between atoms: _211  and  _214
REMARK   75  A    between atoms: _214  and  _215
REMARK   76  A    between atoms: _220  and  _222
REMARK   77  A    between atoms: _222  and  _223
REMARK   78  A    between atoms: _222  and  _225
REMARK   79  A    between atoms: _228  and  _230
REMARK   80  A    between atoms: _230  and  _231
REMARK   81  A    between atoms: _233  and  _235
REMARK   82  A    between atoms: _235  and  _236
REMARK   83  A    between atoms: _239  and  _241
REMARK   84  A    between atoms: _241  and  _242
REMARK   85  A    between atoms: _241  and  _244
REMARK   86  A    between atoms: _247  and  _249
REMARK   87  A    between atoms: _249  and  _250
REMARK   88  A    between atoms: _249  and  _252
REMARK   89  A    between atoms: _252  and  _253
REMARK   90  A    between atoms: _253  and  _254
REMARK   91  A    between atoms: _259  and  _261
REMARK   92  A    between atoms: _261  and  _262
REMARK   93  A    between atoms: _261  and  _264
REMARK   94  A    between atoms: _264  and  _265
REMARK   95  A    between atoms: _268  and  _270
REMARK   96  A    between atoms: _270  and  _271
REMARK   97  A    between atoms: _274  and  _276
REMARK   98  A    between atoms: _276  and  _277
REMARK   99  A    between atoms: _276  and  _279
REMARK  100  A    between atoms: _282  and  _284
REMARK  101  A    between atoms: _284  and  _285
REMARK  102  A    between atoms: _284  and  _287
REMARK  103  A    between atoms: _287  and  _288
REMARK  104  A    between atoms: _291  and  _293
REMARK  105  A    between atoms: _293  and  _294
REMARK  106  A    between atoms: _296  and  _298
REMARK  107  A    between atoms: _298  and  _299
REMARK  108  A    between atoms: _298  and  _301
REMARK  109  A    between atoms: _301  and  _302
REMARK  110  A    between atoms: _304  and  _306
REMARK  111  A    between atoms: _306  and  _307
REMARK  112  A    between atoms: _306  and  _309
REMARK  113  A    between atoms: _309  and  _310
REMARK  114  A    between atoms: _313  and  _315
REMARK  115  A    between atoms: _315  and  _316
REMARK  116  A    between atoms: _315  and  _318
REMARK  117  A    between atoms: _318  and  _319
REMARK  118  A    between atoms: _322  and  _324
REMARK  119  A    between atoms: _324  and  _325
REMARK  120  A    between atoms: _324  and  _327
REMARK  121  A    between atoms: _327  and  _328
REMARK  122  A    between atoms: _332  and  _333
REMARK  123  A    between atoms: _339  and  _340
REMARK  124  A    between atoms: _345  and  _347
REMARK  125  A    between atoms: _347  and  _348
REMARK  126  A    between atoms: _347  and  _350
REMARK  127  A    between atoms: _350  and  _351
REMARK  128  A    between atoms: _354  and  _356
REMARK  129  A    between atoms: _356  and  _357
REMARK  130  A    between atoms: _356  and  _359
REMARK  131  A    between atoms: _359  and  _360
REMARK  132  A    between atoms: _363  and  _365
REMARK  133  A    between atoms: _365  and  _366
REMARK  134  A    between atoms: _365  and  _368
REMARK  135  A    between atoms: _370  and  _372
REMARK  136  A    between atoms: _372  and  _373
REMARK  137  A    between atoms: _372  and  _375
REMARK  138  A    between atoms: _378  and  _380
REMARK  139  A    between atoms: _380  and  _381
REMARK  140  A    between atoms: _380  and  _383
REMARK  141  A    between atoms: _383  and  _384
REMARK  142  A    between atoms: _394  and  _396
REMARK  143  A    between atoms: _396  and  _397
REMARK  144  A    between atoms: _396  and  _399
REMARK  145  A    between atoms: _399  and  _400
REMARK  146  A    between atoms: _405  and  _407
REMARK  147  A    between atoms: _407  and  _408
REMARK  148  A    between atoms: _407  and  _410
REMARK  149  A    between atoms: _410  and  _411
REMARK  150  A    between atoms: _411  and  _412
REMARK  151  A    between atoms: _412  and  _413
REMARK                            x       y       z     vdW  Elec       q    Type
REMARK                         _______ _______ _______ _____ _____    ______ ____
ROOT
ATOM      1  CB  ASN A   1      -2.170  -7.109  10.538  0.00  0.00    +0.110 C 
ENDROOT
BRANCH   1   2
ATOM      2  CG  ASN A   1      -3.669  -7.295  10.339  0.00  0.00    +0.221 C 
ATOM      3  OD1 ASN A   1      -4.280  -8.190  10.917  0.00  0.00    -0.275 OA
ATOM      4  ND2 ASN A   1      -4.264  -6.453   9.502  0.00  0.00    -0.329 N 
ATOM      5 HD21 ASN A   1      -5.284  -6.538   9.316  0.00  0.00    +0.145 HD
ATOM      6 HD22 ASN A   1      -3.710  -5.708   9.032  0.00  0.00    +0.145 HD
ENDBRANCH   1   2
BRANCH   1   7
ATOM      7  CA  ASN A   1      -1.592  -8.008  11.640  0.00  0.00    +0.142 C 
BRANCH   7   8
ATOM      8  N   ASN A   1      -1.941  -9.406  11.409  0.00  0.00    -0.239 NA
ATOM      9  H   ASN A   1      -2.858  -9.640  10.979  0.00  0.00    +0.142 HD
ENDBRANCH   7   8
BRANCH   7  10
ATOM     10  C   ASN A   1      -2.107  -7.596  13.025  0.00  0.00    +0.225 C 
ATOM     11  O   ASN A   1      -2.823  -6.607  13.179  0.00  0.00    -0.287 OA
ENDBRANCH   7  10
ENDBRANCH   1   7
TORSDOF 4
REMARK  Name = ../refined-set-2016/1g46/1g46_pocket.pdb
REMARK  151 active torsions:
REMARK  status: ('A' for Active; 'I' for Inactive)
REMARK    1  A    between atoms: _1  and  _3
REMARK    2  A    between atoms: _3  and  _4
REMARK    3  A    between atoms: _3  and  _6
REMARK    4  A    between atoms: _6  and  _7
REMARK    5  A    between atoms: _17  and  _19
REMARK    6  A    between atoms: _19  and  _20
REMARK    7  A    between atoms: _19  and  _22
REMARK    8  A    between atoms: _22  and  _23
REMARK    9  A    between atoms: _28  and  _29
REMARK   10  A    between atoms: _31  and  _33
REMARK   11  A    between atoms: _33  and  _34
REMARK   12  A    between atoms: _33  and  _36
REMARK   13  A    between atoms: _36  and  _37
REMARK   14  A    between atoms: _40  and  _41
REMARK   15  A    between atoms: _46  and  _48
REMARK   16  A    between atoms: _48  and  _49
REMARK   17  A    between atoms: _48  and  _51
REMARK   18  A    between atoms: _51  and  _52
REMARK   19  A    between atoms: _57  and  _59
REMARK   20  A    between atoms: _59  and  _60
REMARK   21  A    between atoms: _63  and  _65
REMARK   22  A    between atoms: _65  and  _66
REMARK   23  A    between atoms: _65  and  _68
REMARK   24  A    between atoms: _68  and  _69
REMARK   25  A    between atoms: _74  and  _76
REMARK   26  A    between atoms: _76  and  _77
REMARK   27  A    between atoms: _76  and  _79
REMARK   28  A    between atoms: _79  and  _80
REMARK   29  A    between atoms: _83  and  _85
REMARK   30  A    between atoms: _85  and  _86
REMARK   31  A    between atoms: _85  and  _88
REMARK   32  A    between atoms: _88  and  _89
REMARK   33  A    between atoms: _89  and  _90
REMARK   34  A    between atoms: _95  and  _97
REMARK   35  A    between atoms: _97  and  _98
REMARK   36  A    between atoms: _97  and  _100
REMARK   37  A    between atoms: _100  and  _101
REMARK   38  A    between atoms: _107  and  _109
REMARK   39  A    between atoms: _120  and  _123
REMARK   40  A    between atoms: _123  and  _124
REMARK   41  A    between atoms: _132  and  _133
REMARK   42  A    between atoms: _141  and  _143
REMARK   43  A    between atoms: _143  and  _144
REMARK   44  A    between atoms: _143  and  _146
REMARK   45  A    between atoms: _146  and  _147
REMARK   46  A    between atoms: _147  and  _148
REMARK   47  A    between atoms: _151  and  _153
REMARK   48  A    between atoms: _153  and  _154
REMARK   49  A    between atoms: _153  and  _156
REMARK   50  A    between atoms: _156  and  _157
REMARK   51  A    between atoms: _162  and  _164
REMARK   52  A    between atoms: _164  and  _165
REMARK   53  A    between atoms: _164  and  _167
REMARK   54  A    between atoms: _167  and  _168
REMARK   55  A    between atoms: _168  and  _169
REMARK   56  A    between atoms: _172  and  _174
REMARK   57  A    between atoms: _174  and  _175
REMARK   58  A    between atoms: _174  and  _177
REMARK   59  A    between atoms: _177  and  _178
REMARK   60  A    between atoms: _181  and  _183
REMARK   61  A    between atoms: _183  and  _184
REMARK   62  A    between atoms: _183  and  _186
REMARK   63  A    between atoms: _186  and  _187
REMARK   64  A    between atoms: _188  and  ZN_422
REMARK   65  A    between atoms: _192  and  _194
REMARK   66  A    between atoms: _194  and  _195
REMARK   67  A    between atoms: _194  and  _197
REMARK   68  A    between atoms: _197  and  _198
REMARK   69  A    between atoms: _201  and  _203
REMARK   70  A    between atoms: _203  and  _204
REMARK   71  A    between atoms: _203  and  _206
REMARK   72  A    between atoms: _209  and  _211
REMARK   73  A    between atoms: _211  and  _212
REMARK   74  A    between atoms: _211  and  _214
REMARK   75  A    between atoms: _214  and  _215
REMARK   76  A    between atoms: _220  and  _222
REMARK   77  A    between atoms: _222  and  _223
REMARK   78  A    between atoms: _222  and  _225
REMARK   79  A    between atoms: _228  and  _230
REMARK   80  A    between atoms: _230  and  _231
REMARK   81  A    between atoms: _233  and  _235
REMARK   82  A    between atoms: _235  and  _236
REMARK   83  A    between atoms: _239  and  _241
REMARK   84  A    between atoms: _241  and  _242
REMARK   85  A    between atoms: _241  and  _244
REMARK   86  A    between atoms: _247  and  _249
REMARK   87  A    between atoms: _249  and  _250
REMARK   88  A    between atoms: _249  and  _252
REMARK   89  A    between atoms: _252  and  _253
REMARK   90  A    between atoms: _253  and  _254
REMARK   91  A    between atoms: _259  and  _261
REMARK   92  A    between atoms: _261  and  _262
REMARK   93  A    between atoms: _261  and  _264
REMARK   94  A    between atoms: _264  and  _265
REMARK   95  A    between atoms: _268  and  _270
REMARK   96  A    between atoms: _270  and  _271
REMARK   97  A    between atoms: _274  and  _276
REMARK   98  A    between atoms: _276  and  _277
REMARK   99  A    between atoms: _276  and  _279
REMARK  100  A    between atoms: _282  and  _284
REMARK  101  A    between atoms: _284  and  _285
REMARK  102  A    between atoms: _284  and  _287
REMARK  103  A    between atoms: _287  and  _288
REMARK  104  A    between atoms: _291  and  _293
REMARK  105  A    between atoms: _293  and  _294
REMARK  106  A    between atoms: _296  and  _298
REMARK  107  A    between atoms: _298  and  _299
REMARK  108  A    between atoms: _298  and  _301
REMARK  109  A    between atoms: _301  and  _302
REMARK  110  A    between atoms: _304  and  _306
REMARK  111  A    between atoms: _306  and  _307
REMARK  112  A    between atoms: _306  and  _309
REMARK  113  A    between atoms: _309  and  _310
REMARK  114  A    between atoms: _313  and  _315
REMARK  115  A    between atoms: _315  and  _316
REMARK  116  A    between atoms: _315  and  _318
REMARK  117  A    between atoms: _318  and  _319
REMARK  118  A    between atoms: _322  and  _324
REMARK  119  A    between atoms: _324  and  _325
REMARK  120  A    between atoms: _324  and  _327
REMARK  121  A    between atoms: _327  and  _328
REMARK  122  A    between atoms: _332  and  _333
REMARK  123  A    between atoms: _339  and  _340
REMARK  124  A    between atoms: _345  and  _347
REMARK  125  A    between atoms: _347  and  _348
REMARK  126  A    between atoms: _347  and  _350
REMARK  127  A    between atoms: _350  and  _351
REMARK  128  A    between atoms: _354  and  _356
REMARK  129  A    between atoms: _356  and  _357
REMARK  130  A    between atoms: _356  and  _359
REMARK  131  A    between atoms: _359  and  _360
REMARK  132  A    between atoms: _363  and  _365
REMARK  133  A    between atoms: _365  and  _366
REMARK  134  A    between atoms: _365  and  _368
REMARK  135  A    between atoms: _370  and  _372
REMARK  136  A    between atoms: _372  and  _373
REMARK  137  A    between atoms: _372  and  _375
REMARK  138  A    between atoms: _378  and  _380
REMARK  139  A    between atoms: _380  and  _381
REMARK  140  A    between atoms: _380  and  _383
REMARK  141  A    between atoms: _383  and  _384
REMARK  142  A    between atoms: _394  and  _396
REMARK  143  A    between atoms: _396  and  _397
REMARK  144  A    between atoms: _396  and  _399
REMARK  145  A    between atoms: _399  and  _400
REMARK  146  A    between atoms: _405  and  _407
REMARK  147  A    between atoms: _407  and  _408
REMARK  148  A    between atoms: _407  and  _410
REMARK  149  A    between atoms: _410  and  _411
REMARK  150  A    between atoms: _411  and  _412
REMARK  151  A    between atoms: _412  and  _413
REMARK                            x       y       z     vdW  Elec       q    Type
REMARK                         _______ _______ _______ _____ _____    ______ ____
ROOT
ATOM      1  NE  ARG A   1       2.102  -3.690  21.191  0.00  0.00    -0.265 N 
ATOM      2  CZ  ARG A   1       2.274  -2.713  22.072  0.00  0.00    +0.342 C 
ATOM      3  NH2 ARG A   1       3.494  -2.449  22.528  0.00  0.00    -0.292 N 
ATOM      4 HH21 ARG A   1       3.637  -1.685  23.219  0.00  0.00    +0.255 HD
ATOM      5 HH22 ARG A   1       4.306  -3.007  22.194  0.00  0.00    +0.255 HD
ATOM      6  NH1 ARG A   1       1.242  -1.964  22.458  0.00  0.00    -0.292 N 
ATOM      7 HH11 ARG A   1       1.384  -1.200  23.149  0.00  0.00    +0.255 HD
ATOM      8 HH12 ARG A   1       0.295  -2.144  22.068  0.00  0.00    +0.255 HD
ATOM      9  HE  ARG A   1       2.935  -4.252  20.924  0.00  0.00    +0.259 HD
ENDROOT
BRANCH   1  10
ATOM     10  CD  ARG A   1       0.828  -4.031  20.571  0.00  0.00    +0.174 C 
BRANCH  10  11
ATOM     11  CG  ARG A   1       0.888  -5.436  20.039  0.00  0.00    +0.045 C 
BRANCH  11  12
ATOM     12  CB  ARG A   1      -0.122  -5.658  18.957  0.00  0.00    +0.029 C 
BRANCH  12  13
ATOM     13  CA  ARG A   1      -0.174  -7.102  18.472  0.00  0.00    +0.133 C 
BRANCH  13  14
ATOM     14  N   ARG A   1      -1.184  -7.241  17.437  0.00  0.00    -0.239 NA
ATOM     15  H   ARG A   1      -2.073  -6.709  17.527  0.00  0.00    +0.142 HD
ENDBRANCH  13  14
BRANCH  13  16
ATOM     16  C   ARG A   1      -0.562  -7.989  19.650  0.00  0.00    +0.224 C 
ATOM     17  O   ARG A   1      -1.732  -8.066  20.018  0.00  0.00    -0.287 OA
ENDBRANCH  13  16
ENDBRANCH  12  13
ENDBRANCH  11  12
ENDBRANCH  10  11
ENDBRANCH   1  10
TORSDOF 6
REMARK  Name = ../refined-set-2016/1g46/1g46_pocket.pdb
REMARK  151 active torsions:
REMARK  status: ('A' for Active; 'I' for Inactive)
REMARK    1  A    between atoms: _1  and  _3
REMARK    2  A    between atoms: _3  and  _4
REMARK    3  A    between atoms: _3  and  _6
REMARK    4  A    between atoms: _6  and  _7
REMARK    5  A    between atoms: _17  and  _19
REMARK    6  A    between atoms: _19  and  _20
REMARK    7  A    between atoms: _19  and  _22
REMARK    8  A    between atoms: _22  and  _23
REMARK    9  A    between atoms: _28  and  _29
REMARK   10  A    between atoms: _31  and  _33
REMARK   11  A    between atoms: _33  and  _34
REMARK   12  A    between atoms: _33  and  _36
REMARK   13  A    between atoms: _36  and  _37
REMARK   14  A    between atoms: _40  and  _41
REMARK   15  A    between atoms: _46  and  _48
REMARK   16  A    between atoms: _48  and  _49
REMARK   17  A    between atoms: _48  and  _51
REMARK   18  A    between atoms: _51  and  _52
REMARK   19  A    between atoms: _57  and  _59
REMARK   20  A    between atoms: _59  and  _60
REMARK   21  A    between atoms: _63  and  _65
REMARK   22  A    between atoms: _65  and  _66
REMARK   23  A    between atoms: _65  and  _68
REMARK   24  A    between atoms: _68  and  _69
REMARK   25  A    between atoms: _74  and  _76
REMARK   26  A    between atoms: _76  and  _77
REMARK   27  A    between atoms: _76  and  _79
REMARK   28  A    between atoms: _79  and  _80
REMARK   29  A    between atoms: _83  and  _85
REMARK   30  A    between atoms: _85  and  _86
REMARK   31  A    between atoms: _85  and  _88
REMARK   32  A    between atoms: _88  and  _89
REMARK   33  A    between atoms: _89  and  _90
REMARK   34  A    between atoms: _95  and  _97
REMARK   35  A    between atoms: _97  and  _98
REMARK   36  A    between atoms: _97  and  _100
REMARK   37  A    between atoms: _100  and  _101
REMARK   38  A    between atoms: _107  and  _109
REMARK   39  A    between atoms: _120  and  _123
REMARK   40  A    between atoms: _123  and  _124
REMARK   41  A    between atoms: _132  and  _133
REMARK   42  A    between atoms: _141  and  _143
REMARK   43  A    between atoms: _143  and  _144
REMARK   44  A    between atoms: _143  and  _146
REMARK   45  A    between atoms: _146  and  _147
REMARK   46  A    between atoms: _147  and  _148
REMARK   47  A    between atoms: _151  and  _153
REMARK   48  A    between atoms: _153  and  _154
REMARK   49  A    between atoms: _153  and  _156
REMARK   50  A    between atoms: _156  and  _157
REMARK   51  A    between atoms: _162  and  _164
REMARK   52  A    between atoms: _164  and  _165
REMARK   53  A    between atoms: _164  and  _167
REMARK   54  A    between atoms: _167  and  _168
REMARK   55  A    between atoms: _168  and  _169
REMARK   56  A    between atoms: _172  and  _174
REMARK   57  A    between atoms: _174  and  _175
REMARK   58  A    between atoms: _174  and  _177
REMARK   59  A    between atoms: _177  and  _178
REMARK   60  A    between atoms: _181  and  _183
REMARK   61  A    between atoms: _183  and  _184
REMARK   62  A    between atoms: _183  and  _186
REMARK   63  A    between atoms: _186  and  _187
REMARK   64  A    between atoms: _188  and  ZN_422
REMARK   65  A    between atoms: _192  and  _194
REMARK   66  A    between atoms: _194  and  _195
REMARK   67  A    between atoms: _194  and  _197
REMARK   68  A    between atoms: _197  and  _198
REMARK   69  A    between atoms: _201  and  _203
REMARK   70  A    between atoms: _203  and  _204
REMARK   71  A    between atoms: _203  and  _206
REMARK   72  A    between atoms: _209  and  _211
REMARK   73  A    between atoms: _211  and  _212
REMARK   74  A    between atoms: _211  and  _214
REMARK   75  A    between atoms: _214  and  _215
REMARK   76  A    between atoms: _220  and  _222
REMARK   77  A    between atoms: _222  and  _223
REMARK   78  A    between atoms: _222  and  _225
REMARK   79  A    between atoms: _228  and  _230
REMARK   80  A    between atoms: _230  and  _231
REMARK   81  A    between atoms: _233  and  _235
REMARK   82  A    between atoms: _235  and  _236
REMARK   83  A    between atoms: _239  and  _241
REMARK   84  A    between atoms: _241  and  _242
REMARK   85  A    between atoms: _241  and  _244
REMARK   86  A    between atoms: _247  and  _249
REMARK   87  A    between atoms: _249  and  _250
REMARK   88  A    between atoms: _249  and  _252
REMARK   89  A    between atoms: _252  and  _253
REMARK   90  A    between atoms: _253  and  _254
REMARK   91  A    between atoms: _259  and  _261
REMARK   92  A    between atoms: _261  and  _262
REMARK   93  A    between atoms: _261  and  _264
REMARK   94  A    between atoms: _264  and  _265
REMARK   95  A    between atoms: _268  and  _270
REMARK   96  A    between atoms: _270  and  _271
REMARK   97  A    between atoms: _274  and  _276
REMARK   98  A    between atoms: _276  and  _277
REMARK   99  A    between atoms: _276  and  _279
REMARK  100  A    between atoms: _282  and  _284
REMARK  101  A    between atoms: _284  and  _285
REMARK  102  A    between atoms: _284  and  _287
REMARK  103  A    between atoms: _287  and  _288
REMARK  104  A    between atoms: _291  and  _293
REMARK  105  A    between atoms: _293  and  _294
REMARK  106  A    between atoms: _296  and  _298
REMARK  107  A    between atoms: _298  and  _299
REMARK  108  A    between atoms: _298  and  _301
REMARK  109  A    between atoms: _301  and  _302
REMARK  110  A    between atoms: _304  and  _306
REMARK  111  A    between atoms: _306  and  _307
REMARK  112  A    between atoms: _306  and  _309
REMARK  113  A    between atoms: _309  and  _310
REMARK  114  A    between atoms: _313  and  _315
REMARK  115  A    between atoms: _315  and  _316
REMARK  116  A    between atoms: _315  and  _318
REMARK  117  A    between atoms: _318  and  _319
REMARK  118  A    between atoms: _322  and  _324
REMARK  119  A    between atoms: _324  and  _325
REMARK  120  A    between atoms: _324  and  _327
REMARK  121  A    between atoms: _327  and  _328
REMARK  122  A    between atoms: _332  and  _333
REMARK  123  A    between atoms: _339  and  _340
REMARK  124  A    between atoms: _345  and  _347
REMARK  125  A    between atoms: _347  and  _348
REMARK  126  A    between atoms: _347  and  _350
REMARK  127  A    between atoms: _350  and  _351
REMARK  128  A    between atoms: _354  and  _356
REMARK  129  A    between atoms: _356  and  _357
REMARK  130  A    between atoms: _356  and  _359
REMARK  131  A    between atoms: _359  and  _360
REMARK  132  A    between atoms: _363  and  _365
REMARK  133  A    between atoms: _365  and  _366
REMARK  134  A    between atoms: _365  and  _368
REMARK  135  A    between atoms: _370  and  _372
REMARK  136  A    between atoms: _372  and  _373
REMARK  137  A    between atoms: _372  and  _375
REMARK  138  A    between atoms: _378  and  _380
REMARK  139  A    between atoms: _380  and  _381
REMARK  140  A    between atoms: _380  and  _383
REMARK  141  A    between atoms: _383  and  _384
REMARK  142  A    between atoms: _394  and  _396
REMARK  143  A    between atoms: _396  and  _397
REMARK  144  A    between atoms: _396  and  _399
REMARK  145  A    between atoms: _399  and  _400
REMARK  146  A    between atoms: _405  and  _407
REMARK  147  A    between atoms: _407  and  _408
REMARK  148  A    between atoms: _407  and  _410
REMARK  149  A    between atoms: _410  and  _411
REMARK  150  A    between atoms: _411  and  _412
REMARK  151  A    between atoms: _412  and  _413
REMARK                            x       y       z     vdW  Elec       q    Type
REMARK                         _______ _______ _______ _____ _____    ______ ____
ROOT
ATOM      1  O   HOH     1      -1.383  -3.928  15.936  0.00  0.00    +0.000 OA
ENDROOT
TORSDOF 0
REMARK  Name = ../refined-set-2016/1g46/1g46_pocket.pdb
REMARK  151 active torsions:
REMARK  status: ('A' for Active; 'I' for Inactive)
REMARK    1  A    between atoms: _1  and  _3
REMARK    2  A    between atoms: _3  and  _4
REMARK    3  A    between atoms: _3  and  _6
REMARK    4  A    between atoms: _6  and  _7
REMARK    5  A    between atoms: _17  and  _19
REMARK    6  A    between atoms: _19  and  _20
REMARK    7  A    between atoms: _19  and  _22
REMARK    8  A    between atoms: _22  and  _23
REMARK    9  A    between atoms: _28  and  _29
REMARK   10  A    between atoms: _31  and  _33
REMARK   11  A    between atoms: _33  and  _34
REMARK   12  A    between atoms: _33  and  _36
REMARK   13  A    between atoms: _36  and  _37
REMARK   14  A    between atoms: _40  and  _41
REMARK   15  A    between atoms: _46  and  _48
REMARK   16  A    between atoms: _48  and  _49
REMARK   17  A    between atoms: _48  and  _51
REMARK   18  A    between atoms: _51  and  _52
REMARK   19  A    between atoms: _57  and  _59
REMARK   20  A    between atoms: _59  and  _60
REMARK   21  A    between atoms: _63  and  _65
REMARK   22  A    between atoms: _65  and  _66
REMARK   23  A    between atoms: _65  and  _68
REMARK   24  A    between atoms: _68  and  _69
REMARK   25  A    between atoms: _74  and  _76
REMARK   26  A    between atoms: _76  and  _77
REMARK   27  A    between atoms: _76  and  _79
REMARK   28  A    between atoms: _79  and  _80
REMARK   29  A    between atoms: _83  and  _85
REMARK   30  A    between atoms: _85  and  _86
REMARK   31  A    between atoms: _85  and  _88
REMARK   32  A    between atoms: _88  and  _89
REMARK   33  A    between atoms: _89  and  _90
REMARK   34  A    between atoms: _95  and  _97
REMARK   35  A    between atoms: _97  and  _98
REMARK   36  A    between atoms: _97  and  _100
REMARK   37  A    between atoms: _100  and  _101
REMARK   38  A    between atoms: _107  and  _109
REMARK   39  A    between atoms: _120  and  _123
REMARK   40  A    between atoms: _123  and  _124
REMARK   41  A    between atoms: _132  and  _133
REMARK   42  A    between atoms: _141  and  _143
REMARK   43  A    between atoms: _143  and  _144
REMARK   44  A    between atoms: _143  and  _146
REMARK   45  A    between atoms: _146  and  _147
REMARK   46  A    between atoms: _147  and  _148
REMARK   47  A    between atoms: _151  and  _153
REMARK   48  A    between atoms: _153  and  _154
REMARK   49  A    between atoms: _153  and  _156
REMARK   50  A    between atoms: _156  and  _157
REMARK   51  A    between atoms: _162  and  _164
REMARK   52  A    between atoms: _164  and  _165
REMARK   53  A    between atoms: _164  and  _167
REMARK   54  A    between atoms: _167  and  _168
REMARK   55  A    between atoms: _168  and  _169
REMARK   56  A    between atoms: _172  and  _174
REMARK   57  A    between atoms: _174  and  _175
REMARK   58  A    between atoms: _174  and  _177
REMARK   59  A    between atoms: _177  and  _178
REMARK   60  A    between atoms: _181  and  _183
REMARK   61  A    between atoms: _183  and  _184
REMARK   62  A    between atoms: _183  and  _186
REMARK   63  A    between atoms: _186  and  _187
REMARK   64  A    between atoms: _188  and  ZN_422
REMARK   65  A    between atoms: _192  and  _194
REMARK   66  A    between atoms: _194  and  _195
REMARK   67  A    between atoms: _194  and  _197
REMARK   68  A    between atoms: _197  and  _198
REMARK   69  A    between atoms: _201  and  _203
REMARK   70  A    between atoms: _203  and  _204
REMARK   71  A    between atoms: _203  and  _206
REMARK   72  A    between atoms: _209  and  _211
REMARK   73  A    between atoms: _211  and  _212
REMARK   74  A    between atoms: _211  and  _214
REMARK   75  A    between atoms: _214  and  _215
REMARK   76  A    between atoms: _220  and  _222
REMARK   77  A    between atoms: _222  and  _223
REMARK   78  A    between atoms: _222  and  _225
REMARK   79  A    between atoms: _228  and  _230
REMARK   80  A    between atoms: _230  and  _231
REMARK   81  A    between atoms: _233  and  _235
REMARK   82  A    between atoms: _235  and  _236
REMARK   83  A    between atoms: _239  and  _241
REMARK   84  A    between atoms: _241  and  _242
REMARK   85  A    between atoms: _241  and  _244
REMARK   86  A    between atoms: _247  and  _249
REMARK   87  A    between atoms: _249  and  _250
REMARK   88  A    between atoms: _249  and  _252
REMARK   89  A    between atoms: _252  and  _253
REMARK   90  A    between atoms: _253  and  _254
REMARK   91  A    between atoms: _259  and  _261
REMARK   92  A    between atoms: _261  and  _262
REMARK   93  A    between atoms: _261  and  _264
REMARK   94  A    between atoms: _264  and  _265
REMARK   95  A    between atoms: _268  and  _270
REMARK   96  A    between atoms: _270  and  _271
REMARK   97  A    between atoms: _274  and  _276
REMARK   98  A    between atoms: _276  and  _277
REMARK   99  A    between atoms: _276  and  _279
REMARK  100  A    between atoms: _282  and  _284
REMARK  101  A    between atoms: _284  and  _285
REMARK  102  A    between atoms: _284  and  _287
REMARK  103  A    between atoms: _287  and  _288
REMARK  104  A    between atoms: _291  and  _293
REMARK  105  A    between atoms: _293  and  _294
REMARK  106  A    between atoms: _296  and  _298
REMARK  107  A    between atoms: _298  and  _299
REMARK  108  A    between atoms: _298  and  _301
REMARK  109  A    between atoms: _301  and  _302
REMARK  110  A    between atoms: _304  and  _306
REMARK  111  A    between atoms: _306  and  _307
REMARK  112  A    between atoms: _306  and  _309
REMARK  113  A    between atoms: _309  and  _310
REMARK  114  A    between atoms: _313  and  _315
REMARK  115  A    between atoms: _315  and  _316
REMARK  116  A    between atoms: _315  and  _318
REMARK  117  A    between atoms: _318  and  _319
REMARK  118  A    between atoms: _322  and  _324
REMARK  119  A    between atoms: _324  and  _325
REMARK  120  A    between atoms: _324  and  _327
REMARK  121  A    between atoms: _327  and  _328
REMARK  122  A    between atoms: _332  and  _333
REMARK  123  A    between atoms: _339  and  _340
REMARK  124  A    between atoms: _345  and  _347
REMARK  125  A    between atoms: _347  and  _348
REMARK  126  A    between atoms: _347  and  _350
REMARK  127  A    between atoms: _350  and  _351
REMARK  128  A    between atoms: _354  and  _356
REMARK  129  A    between atoms: _356  and  _357
REMARK  130  A    between atoms: _356  and  _359
REMARK  131  A    between atoms: _359  and  _360
REMARK  132  A    between atoms: _363  and  _365
REMARK  133  A    between atoms: _365  and  _366
REMARK  134  A    between atoms: _365  and  _368
REMARK  135  A    between atoms: _370  and  _372
REMARK  136  A    between atoms: _372  and  _373
REMARK  137  A    between atoms: _372  and  _375
REMARK  138  A    between atoms: _378  and  _380
REMARK  139  A    between atoms: _380  and  _381
REMARK  140  A    between atoms: _380  and  _383
REMARK  141  A    between atoms: _383  and  _384
REMARK  142  A    between atoms: _394  and  _396
REMARK  143  A    between atoms: _396  and  _397
REMARK  144  A    between atoms: _396  and  _399
REMARK  145  A    between atoms: _399  and  _400
REMARK  146  A    between atoms: _405  and  _407
REMARK  147  A    between atoms: _407  and  _408
REMARK  148  A    between atoms: _407  and  _410
REMARK  149  A    between atoms: _410  and  _411
REMARK  150  A    between atoms: _411  and  _412
REMARK  151  A    between atoms: _412  and  _413
REMARK                            x       y       z     vdW  Elec       q    Type
REMARK                         _______ _______ _______ _____ _____    ______ ____
ROOT
ATOM      1  O   HOH     1      -2.539  -3.004  11.586  0.00  0.00    +0.000 OA
ENDROOT
TORSDOF 0
REMARK  Name = ../refined-set-2016/1g46/1g46_pocket.pdb
REMARK  151 active torsions:
REMARK  status: ('A' for Active; 'I' for Inactive)
REMARK    1  A    between atoms: _1  and  _3
REMARK    2  A    between atoms: _3  and  _4
REMARK    3  A    between atoms: _3  and  _6
REMARK    4  A    between atoms: _6  and  _7
REMARK    5  A    between atoms: _17  and  _19
REMARK    6  A    between atoms: _19  and  _20
REMARK    7  A    between atoms: _19  and  _22
REMARK    8  A    between atoms: _22  and  _23
REMARK    9  A    between atoms: _28  and  _29
REMARK   10  A    between atoms: _31  and  _33
REMARK   11  A    between atoms: _33  and  _34
REMARK   12  A    between atoms: _33  and  _36
REMARK   13  A    between atoms: _36  and  _37
REMARK   14  A    between atoms: _40  and  _41
REMARK   15  A    between atoms: _46  and  _48
REMARK   16  A    between atoms: _48  and  _49
REMARK   17  A    between atoms: _48  and  _51
REMARK   18  A    between atoms: _51  and  _52
REMARK   19  A    between atoms: _57  and  _59
REMARK   20  A    between atoms: _59  and  _60
REMARK   21  A    between atoms: _63  and  _65
REMARK   22  A    between atoms: _65  and  _66
REMARK   23  A    between atoms: _65  and  _68
REMARK   24  A    between atoms: _68  and  _69
REMARK   25  A    between atoms: _74  and  _76
REMARK   26  A    between atoms: _76  and  _77
REMARK   27  A    between atoms: _76  and  _79
REMARK   28  A    between atoms: _79  and  _80
REMARK   29  A    between atoms: _83  and  _85
REMARK   30  A    between atoms: _85  and  _86
REMARK   31  A    between atoms: _85  and  _88
REMARK   32  A    between atoms: _88  and  _89
REMARK   33  A    between atoms: _89  and  _90
REMARK   34  A    between atoms: _95  and  _97
REMARK   35  A    between atoms: _97  and  _98
REMARK   36  A    between atoms: _97  and  _100
REMARK   37  A    between atoms: _100  and  _101
REMARK   38  A    between atoms: _107  and  _109
REMARK   39  A    between atoms: _120  and  _123
REMARK   40  A    between atoms: _123  and  _124
REMARK   41  A    between atoms: _132  and  _133
REMARK   42  A    between atoms: _141  and  _143
REMARK   43  A    between atoms: _143  and  _144
REMARK   44  A    between atoms: _143  and  _146
REMARK   45  A    between atoms: _146  and  _147
REMARK   46  A    between atoms: _147  and  _148
REMARK   47  A    between atoms: _151  and  _153
REMARK   48  A    between atoms: _153  and  _154
REMARK   49  A    between atoms: _153  and  _156
REMARK   50  A    between atoms: _156  and  _157
REMARK   51  A    between atoms: _162  and  _164
REMARK   52  A    between atoms: _164  and  _165
REMARK   53  A    between atoms: _164  and  _167
REMARK   54  A    between atoms: _167  and  _168
REMARK   55  A    between atoms: _168  and  _169
REMARK   56  A    between atoms: _172  and  _174
REMARK   57  A    between atoms: _174  and  _175
REMARK   58  A    between atoms: _174  and  _177
REMARK   59  A    between atoms: _177  and  _178
REMARK   60  A    between atoms: _181  and  _183
REMARK   61  A    between atoms: _183  and  _184
REMARK   62  A    between atoms: _183  and  _186
REMARK   63  A    between atoms: _186  and  _187
REMARK   64  A    between atoms: _188  and  ZN_422
REMARK   65  A    between atoms: _192  and  _194
REMARK   66  A    between atoms: _194  and  _195
REMARK   67  A    between atoms: _194  and  _197
REMARK   68  A    between atoms: _197  and  _198
REMARK   69  A    between atoms: _201  and  _203
REMARK   70  A    between atoms: _203  and  _204
REMARK   71  A    between atoms: _203  and  _206
REMARK   72  A    between atoms: _209  and  _211
REMARK   73  A    between atoms: _211  and  _212
REMARK   74  A    between atoms: _211  and  _214
REMARK   75  A    between atoms: _214  and  _215
REMARK   76  A    between atoms: _220  and  _222
REMARK   77  A    between atoms: _222  and  _223
REMARK   78  A    between atoms: _222  and  _225
REMARK   79  A    between atoms: _228  and  _230
REMARK   80  A    between atoms: _230  and  _231
REMARK   81  A    between atoms: _233  and  _235
REMARK   82  A    between atoms: _235  and  _236
REMARK   83  A    between atoms: _239  and  _241
REMARK   84  A    between atoms: _241  and  _242
REMARK   85  A    between atoms: _241  and  _244
REMARK   86  A    between atoms: _247  and  _249
REMARK   87  A    between atoms: _249  and  _250
REMARK   88  A    between atoms: _249  and  _252
REMARK   89  A    between atoms: _252  and  _253
REMARK   90  A    between atoms: _253  and  _254
REMARK   91  A    between atoms: _259  and  _261
REMARK   92  A    between atoms: _261  and  _262
REMARK   93  A    between atoms: _261  and  _264
REMARK   94  A    between atoms: _264  and  _265
REMARK   95  A    between atoms: _268  and  _270
REMARK   96  A    between atoms: _270  and  _271
REMARK   97  A    between atoms: _274  and  _276
REMARK   98  A    between atoms: _276  and  _277
REMARK   99  A    between atoms: _276  and  _279
REMARK  100  A    between atoms: _282  and  _284
REMARK  101  A    between atoms: _284  and  _285
REMARK  102  A    between atoms: _284  and  _287
REMARK  103  A    between atoms: _287  and  _288
REMARK  104  A    between atoms: _291  and  _293
REMARK  105  A    between atoms: _293  and  _294
REMARK  106  A    between atoms: _296  and  _298
REMARK  107  A    between atoms: _298  and  _299
REMARK  108  A    between atoms: _298  and  _301
REMARK  109  A    between atoms: _301  and  _302
REMARK  110  A    between atoms: _304  and  _306
REMARK  111  A    between atoms: _306  and  _307
REMARK  112  A    between atoms: _306  and  _309
REMARK  113  A    between atoms: _309  and  _310
REMARK  114  A    between atoms: _313  and  _315
REMARK  115  A    between atoms: _315  and  _316
REMARK  116  A    between atoms: _315  and  _318
REMARK  117  A    between atoms: _318  and  _319
REMARK  118  A    between atoms: _322  and  _324
REMARK  119  A    between atoms: _324  and  _325
REMARK  120  A    between atoms: _324  and  _327
REMARK  121  A    between atoms: _327  and  _328
REMARK  122  A    between atoms: _332  and  _333
REMARK  123  A    between atoms: _339  and  _340
REMARK  124  A    between atoms: _345  and  _347
REMARK  125  A    between atoms: _347  and  _348
REMARK  126  A    between atoms: _347  and  _350
REMARK  127  A    between atoms: _350  and  _351
REMARK  128  A    between atoms: _354  and  _356
REMARK  129  A    between atoms: _356  and  _357
REMARK  130  A    between atoms: _356  and  _359
REMARK  131  A    between atoms: _359  and  _360
REMARK  132  A    between atoms: _363  and  _365
REMARK  133  A    between atoms: _365  and  _366
REMARK  134  A    between atoms: _365  and  _368
REMARK  135  A    between atoms: _370  and  _372
REMARK  136  A    between atoms: _372  and  _373
REMARK  137  A    between atoms: _372  and  _375
REMARK  138  A    between atoms: _378  and  _380
REMARK  139  A    between atoms: _380  and  _381
REMARK  140  A    between atoms: _380  and  _383
REMARK  141  A    between atoms: _383  and  _384
REMARK  142  A    between atoms: _394  and  _396
REMARK  143  A    between atoms: _396  and  _397
REMARK  144  A    between atoms: _396  and  _399
REMARK  145  A    between atoms: _399  and  _400
REMARK  146  A    between atoms: _405  and  _407
REMARK  147  A    between atoms: _407  and  _408
REMARK  148  A    between atoms: _407  and  _410
REMARK  149  A    between atoms: _410  and  _411
REMARK  150  A    between atoms: _411  and  _412
REMARK  151  A    between atoms: _412  and  _413
REMARK                            x       y       z     vdW  Elec       q    Type
REMARK                         _______ _______ _______ _____ _____    ______ ____
ROOT
ATOM      1  O   HOH     1      -4.553   0.731  10.697  0.00  0.00    +0.000 OA
ENDROOT
TORSDOF 0
REMARK  Name = ../refined-set-2016/1g46/1g46_pocket.pdb
REMARK  151 active torsions:
REMARK  status: ('A' for Active; 'I' for Inactive)
REMARK    1  A    between atoms: _1  and  _3
REMARK    2  A    between atoms: _3  and  _4
REMARK    3  A    between atoms: _3  and  _6
REMARK    4  A    between atoms: _6  and  _7
REMARK    5  A    between atoms: _17  and  _19
REMARK    6  A    between atoms: _19  and  _20
REMARK    7  A    between atoms: _19  and  _22
REMARK    8  A    between atoms: _22  and  _23
REMARK    9  A    between atoms: _28  and  _29
REMARK   10  A    between atoms: _31  and  _33
REMARK   11  A    between atoms: _33  and  _34
REMARK   12  A    between atoms: _33  and  _36
REMARK   13  A    between atoms: _36  and  _37
REMARK   14  A    between atoms: _40  and  _41
REMARK   15  A    between atoms: _46  and  _48
REMARK   16  A    between atoms: _48  and  _49
REMARK   17  A    between atoms: _48  and  _51
REMARK   18  A    between atoms: _51  and  _52
REMARK   19  A    between atoms: _57  and  _59
REMARK   20  A    between atoms: _59  and  _60
REMARK   21  A    between atoms: _63  and  _65
REMARK   22  A    between atoms: _65  and  _66
REMARK   23  A    between atoms: _65  and  _68
REMARK   24  A    between atoms: _68  and  _69
REMARK   25  A    between atoms: _74  and  _76
REMARK   26  A    between atoms: _76  and  _77
REMARK   27  A    between atoms: _76  and  _79
REMARK   28  A    between atoms: _79  and  _80
REMARK   29  A    between atoms: _83  and  _85
REMARK   30  A    between atoms: _85  and  _86
REMARK   31  A    between atoms: _85  and  _88
REMARK   32  A    between atoms: _88  and  _89
REMARK   33  A    between atoms: _89  and  _90
REMARK   34  A    between atoms: _95  and  _97
REMARK   35  A    between atoms: _97  and  _98
REMARK   36  A    between atoms: _97  and  _100
REMARK   37  A    between atoms: _100  and  _101
REMARK   38  A    between atoms: _107  and  _109
REMARK   39  A    between atoms: _120  and  _123
REMARK   40  A    between atoms: _123  and  _124
REMARK   41  A    between atoms: _132  and  _133
REMARK   42  A    between atoms: _141  and  _143
REMARK   43  A    between atoms: _143  and  _144
REMARK   44  A    between atoms: _143  and  _146
REMARK   45  A    between atoms: _146  and  _147
REMARK   46  A    between atoms: _147  and  _148
REMARK   47  A    between atoms: _151  and  _153
REMARK   48  A    between atoms: _153  and  _154
REMARK   49  A    between atoms: _153  and  _156
REMARK   50  A    between atoms: _156  and  _157
REMARK   51  A    between atoms: _162  and  _164
REMARK   52  A    between atoms: _164  and  _165
REMARK   53  A    between atoms: _164  and  _167
REMARK   54  A    between atoms: _167  and  _168
REMARK   55  A    between atoms: _168  and  _169
REMARK   56  A    between atoms: _172  and  _174
REMARK   57  A    between atoms: _174  and  _175
REMARK   58  A    between atoms: _174  and  _177
REMARK   59  A    between atoms: _177  and  _178
REMARK   60  A    between atoms: _181  and  _183
REMARK   61  A    between atoms: _183  and  _184
REMARK   62  A    between atoms: _183  and  _186
REMARK   63  A    between atoms: _186  and  _187
REMARK   64  A    between atoms: _188  and  ZN_422
REMARK   65  A    between atoms: _192  and  _194
REMARK   66  A    between atoms: _194  and  _195
REMARK   67  A    between atoms: _194  and  _197
REMARK   68  A    between atoms: _197  and  _198
REMARK   69  A    between atoms: _201  and  _203
REMARK   70  A    between atoms: _203  and  _204
REMARK   71  A    between atoms: _203  and  _206
REMARK   72  A    between atoms: _209  and  _211
REMARK   73  A    between atoms: _211  and  _212
REMARK   74  A    between atoms: _211  and  _214
REMARK   75  A    between atoms: _214  and  _215
REMARK   76  A    between atoms: _220  and  _222
REMARK   77  A    between atoms: _222  and  _223
REMARK   78  A    between atoms: _222  and  _225
REMARK   79  A    between atoms: _228  and  _230
REMARK   80  A    between atoms: _230  and  _231
REMARK   81  A    between atoms: _233  and  _235
REMARK   82  A    between atoms: _235  and  _236
REMARK   83  A    between atoms: _239  and  _241
REMARK   84  A    between atoms: _241  and  _242
REMARK   85  A    between atoms: _241  and  _244
REMARK   86  A    between atoms: _247  and  _249
REMARK   87  A    between atoms: _249  and  _250
REMARK   88  A    between atoms: _249  and  _252
REMARK   89  A    between atoms: _252  and  _253
REMARK   90  A    between atoms: _253  and  _254
REMARK   91  A    between atoms: _259  and  _261
REMARK   92  A    between atoms: _261  and  _262
REMARK   93  A    between atoms: _261  and  _264
REMARK   94  A    between atoms: _264  and  _265
REMARK   95  A    between atoms: _268  and  _270
REMARK   96  A    between atoms: _270  and  _271
REMARK   97  A    between atoms: _274  and  _276
REMARK   98  A    between atoms: _276  and  _277
REMARK   99  A    between atoms: _276  and  _279
REMARK  100  A    between atoms: _282  and  _284
REMARK  101  A    between atoms: _284  and  _285
REMARK  102  A    between atoms: _284  and  _287
REMARK  103  A    between atoms: _287  and  _288
REMARK  104  A    between atoms: _291  and  _293
REMARK  105  A    between atoms: _293  and  _294
REMARK  106  A    between atoms: _296  and  _298
REMARK  107  A    between atoms: _298  and  _299
REMARK  108  A    between atoms: _298  and  _301
REMARK  109  A    between atoms: _301  and  _302
REMARK  110  A    between atoms: _304  and  _306
REMARK  111  A    between atoms: _306  and  _307
REMARK  112  A    between atoms: _306  and  _309
REMARK  113  A    between atoms: _309  and  _310
REMARK  114  A    between atoms: _313  and  _315
REMARK  115  A    between atoms: _315  and  _316
REMARK  116  A    between atoms: _315  and  _318
REMARK  117  A    between atoms: _318  and  _319
REMARK  118  A    between atoms: _322  and  _324
REMARK  119  A    between atoms: _324  and  _325
REMARK  120  A    between atoms: _324  and  _327
REMARK  121  A    between atoms: _327  and  _328
REMARK  122  A    between atoms: _332  and  _333
REMARK  123  A    between atoms: _339  and  _340
REMARK  124  A    between atoms: _345  and  _347
REMARK  125  A    between atoms: _347  and  _348
REMARK  126  A    between atoms: _347  and  _350
REMARK  127  A    between atoms: _350  and  _351
REMARK  128  A    between atoms: _354  and  _356
REMARK  129  A    between atoms: _356  and  _357
REMARK  130  A    between atoms: _356  and  _359
REMARK  131  A    between atoms: _359  and  _360
REMARK  132  A    between atoms: _363  and  _365
REMARK  133  A    between atoms: _365  and  _366
REMARK  134  A    between atoms: _365  and  _368
REMARK  135  A    between atoms: _370  and  _372
REMARK  136  A    between atoms: _372  and  _373
REMARK  137  A    between atoms: _372  and  _375
REMARK  138  A    between atoms: _378  and  _380
REMARK  139  A    between atoms: _380  and  _381
REMARK  140  A    between atoms: _380  and  _383
REMARK  141  A    between atoms: _383  and  _384
REMARK  142  A    between atoms: _394  and  _396
REMARK  143  A    between atoms: _396  and  _397
REMARK  144  A    between atoms: _396  and  _399
REMARK  145  A    between atoms: _399  and  _400
REMARK  146  A    between atoms: _405  and  _407
REMARK  147  A    between atoms: _407  and  _408
REMARK  148  A    between atoms: _407  and  _410
REMARK  149  A    between atoms: _410  and  _411
REMARK  150  A    between atoms: _411  and  _412
REMARK  151  A    between atoms: _412  and  _413
REMARK                            x       y       z     vdW  Elec       q    Type
REMARK                         _______ _______ _______ _____ _____    ______ ____
ROOT
ATOM      1  O   HOH     1      -6.173   9.590  10.137  0.00  0.00    +0.000 OA
ENDROOT
TORSDOF 0
