REMARK  Name = ../refined-set-2016/3p5l/3p5l_pocket.pdb
REMARK  141 active torsions:
REMARK  status: ('A' for Active; 'I' for Inactive)
REMARK    1  A    between atoms: _1  and  _3
REMARK    2  A    between atoms: _3  and  _4
REMARK    3  A    between atoms: _3  and  _6
REMARK    4  A    between atoms: _6  and  _7
REMARK    5  A    between atoms: _17  and  _19
REMARK    6  A    between atoms: _19  and  _20
REMARK    7  A    between atoms: _19  and  _22
REMARK    8  A    between atoms: _22  and  _23
REMARK    9  A    between atoms: _28  and  _29
REMARK   10  A    between atoms: _31  and  _33
REMARK   11  A    between atoms: _33  and  _34
REMARK   12  A    between atoms: _33  and  _36
REMARK   13  A    between atoms: _36  and  _37
REMARK   14  A    between atoms: _40  and  _42
REMARK   15  A    between atoms: _42  and  _43
REMARK   16  A    between atoms: _42  and  _45
REMARK   17  A    between atoms: _45  and  _46
REMARK   18  A    between atoms: _51  and  _53
REMARK   19  A    between atoms: _53  and  _54
REMARK   20  A    between atoms: _53  and  _56
REMARK   21  A    between atoms: _56  and  _57
REMARK   22  A    between atoms: _62  and  _64
REMARK   23  A    between atoms: _64  and  _65
REMARK   24  A    between atoms: _68  and  _70
REMARK   25  A    between atoms: _70  and  _71
REMARK   26  A    between atoms: _70  and  _73
REMARK   27  A    between atoms: _73  and  _74
REMARK   28  A    between atoms: _80  and  _82
REMARK   29  A    between atoms: _82  and  _83
REMARK   30  A    between atoms: _82  and  _85
REMARK   31  A    between atoms: _85  and  _86
REMARK   32  A    between atoms: _91  and  _93
REMARK   33  A    between atoms: _93  and  _94
REMARK   34  A    between atoms: _93  and  _96
REMARK   35  A    between atoms: _96  and  _97
REMARK   36  A    between atoms: _100  and  _102
REMARK   37  A    between atoms: _102  and  _103
REMARK   38  A    between atoms: _102  and  _105
REMARK   39  A    between atoms: _105  and  _106
REMARK   40  A    between atoms: _106  and  _107
REMARK   41  A    between atoms: _112  and  _114
REMARK   42  A    between atoms: _114  and  _115
REMARK   43  A    between atoms: _114  and  _117
REMARK   44  A    between atoms: _117  and  _118
REMARK   45  A    between atoms: _124  and  _126
REMARK   46  A    between atoms: _137  and  _140
REMARK   47  A    between atoms: _140  and  _141
REMARK   48  A    between atoms: _149  and  _150
REMARK   49  A    between atoms: _158  and  _160
REMARK   50  A    between atoms: _160  and  _161
REMARK   51  A    between atoms: _160  and  _163
REMARK   52  A    between atoms: _163  and  _164
REMARK   53  A    between atoms: _164  and  _165
REMARK   54  A    between atoms: _168  and  _170
REMARK   55  A    between atoms: _170  and  _171
REMARK   56  A    between atoms: _170  and  _173
REMARK   57  A    between atoms: _173  and  _174
REMARK   58  A    between atoms: _177  and  _179
REMARK   59  A    between atoms: _179  and  _180
REMARK   60  A    between atoms: _179  and  _182
REMARK   61  A    between atoms: _182  and  _183
REMARK   62  A    between atoms: _184  and  ZN_399
REMARK   63  A    between atoms: _188  and  _190
REMARK   64  A    between atoms: _190  and  _191
REMARK   65  A    between atoms: _190  and  _193
REMARK   66  A    between atoms: _193  and  _194
REMARK   67  A    between atoms: _197  and  _199
REMARK   68  A    between atoms: _199  and  _200
REMARK   69  A    between atoms: _199  and  _202
REMARK   70  A    between atoms: _205  and  _207
REMARK   71  A    between atoms: _207  and  _208
REMARK   72  A    between atoms: _207  and  _210
REMARK   73  A    between atoms: _210  and  _211
REMARK   74  A    between atoms: _216  and  _218
REMARK   75  A    between atoms: _218  and  _219
REMARK   76  A    between atoms: _218  and  _221
REMARK   77  A    between atoms: _221  and  _222
REMARK   78  A    between atoms: _228  and  _230
REMARK   79  A    between atoms: _230  and  _231
REMARK   80  A    between atoms: _233  and  _235
REMARK   81  A    between atoms: _235  and  _236
REMARK   82  A    between atoms: _235  and  _238
REMARK   83  A    between atoms: _241  and  _243
REMARK   84  A    between atoms: _243  and  _244
REMARK   85  A    between atoms: _243  and  _246
REMARK   86  A    between atoms: _246  and  _247
REMARK   87  A    between atoms: _250  and  _252
REMARK   88  A    between atoms: _252  and  _253
REMARK   89  A    between atoms: _256  and  _258
REMARK   90  A    between atoms: _258  and  _259
REMARK   91  A    between atoms: _258  and  _261
REMARK   92  A    between atoms: _264  and  _266
REMARK   93  A    between atoms: _266  and  _267
REMARK   94  A    between atoms: _266  and  _269
REMARK   95  A    between atoms: _269  and  _270
REMARK   96  A    between atoms: _273  and  _275
REMARK   97  A    between atoms: _275  and  _276
REMARK   98  A    between atoms: _275  and  _278
REMARK   99  A    between atoms: _278  and  _279
REMARK  100  A    between atoms: _281  and  _283
REMARK  101  A    between atoms: _283  and  _284
REMARK  102  A    between atoms: _283  and  _286
REMARK  103  A    between atoms: _286  and  _287
REMARK  104  A    between atoms: _290  and  _292
REMARK  105  A    between atoms: _292  and  _293
REMARK  106  A    between atoms: _292  and  _295
REMARK  107  A    between atoms: _295  and  _296
REMARK  108  A    between atoms: _299  and  _301
REMARK  109  A    between atoms: _301  and  _302
REMARK  110  A    between atoms: _301  and  _304
REMARK  111  A    between atoms: _304  and  _305
REMARK  112  A    between atoms: _309  and  _310
REMARK  113  A    between atoms: _316  and  _317
REMARK  114  A    between atoms: _322  and  _324
REMARK  115  A    between atoms: _324  and  _325
REMARK  116  A    between atoms: _324  and  _327
REMARK  117  A    between atoms: _327  and  _328
REMARK  118  A    between atoms: _331  and  _333
REMARK  119  A    between atoms: _333  and  _334
REMARK  120  A    between atoms: _333  and  _336
REMARK  121  A    between atoms: _336  and  _337
REMARK  122  A    between atoms: _340  and  _342
REMARK  123  A    between atoms: _342  and  _343
REMARK  124  A    between atoms: _342  and  _345
REMARK  125  A    between atoms: _347  and  _349
REMARK  126  A    between atoms: _349  and  _350
REMARK  127  A    between atoms: _349  and  _352
REMARK  128  A    between atoms: _355  and  _357
REMARK  129  A    between atoms: _357  and  _358
REMARK  130  A    between atoms: _357  and  _360
REMARK  131  A    between atoms: _360  and  _361
REMARK  132  A    between atoms: _371  and  _373
REMARK  133  A    between atoms: _373  and  _374
REMARK  134  A    between atoms: _373  and  _376
REMARK  135  A    between atoms: _376  and  _377
REMARK  136  A    between atoms: _382  and  _384
REMARK  137  A    between atoms: _384  and  _385
REMARK  138  A    between atoms: _384  and  _387
REMARK  139  A    between atoms: _387  and  _388
REMARK  140  A    between atoms: _388  and  _389
REMARK  141  A    between atoms: _389  and  _390
REMARK                            x       y       z     vdW  Elec       q    Type
REMARK                         _______ _______ _______ _____ _____    ______ ____
ROOT
ATOM      1  CG  TRP A   1       5.817   0.134  12.169  0.00  0.00    -0.002 A 
ATOM      2  CD2 TRP A   1       4.481  -0.340  12.094  0.00  0.00    +0.013 A 
ATOM      3  CE3 TRP A   1       3.876  -1.578  12.328  0.00  0.00    +0.001 A 
ATOM      4  CZ3 TRP A   1       2.509  -1.685  12.173  0.00  0.00    +0.000 A 
ATOM      5  CH2 TRP A   1       1.730  -0.582  11.781  0.00  0.00    +0.001 A 
ATOM      6  CZ2 TRP A   1       2.283   0.628  11.554  0.00  0.00    +0.017 A 
ATOM      7  CE2 TRP A   1       3.674   0.749  11.714  0.00  0.00    +0.056 A 
ATOM      8  NE1 TRP A   1       4.498   1.837  11.547  0.00  0.00    -0.352 N 
ATOM      9  HE1 TRP A   1       4.195   2.787  11.250  0.00  0.00    +0.166 HD
ATOM     10  CD1 TRP A   1       5.769   1.467  11.833  0.00  0.00    +0.068 A 
ENDROOT
BRANCH   1  11
ATOM     11  CB  TRP A   1       7.020  -0.656  12.539  0.00  0.00    +0.053 C 
BRANCH  11  12
ATOM     12  CA  TRP A   1       7.716  -1.350  11.359  0.00  0.00    +0.137 C 
BRANCH  12  13
ATOM     13  N   TRP A   1       8.441  -0.401  10.531  0.00  0.00    -0.239 NA
ATOM     14  H   TRP A   1       8.322   0.618  10.699  0.00  0.00    +0.142 HD
ENDBRANCH  12  13
BRANCH  12  15
ATOM     15  C   TRP A   1       6.715  -2.143  10.529  0.00  0.00    +0.224 C 
ATOM     16  O   TRP A   1       6.181  -1.677   9.500  0.00  0.00    -0.287 OA
ENDBRANCH  12  15
ENDBRANCH  11  12
ENDBRANCH   1  11
TORSDOF 4
REMARK  Name = ../refined-set-2016/3p5l/3p5l_pocket.pdb
REMARK  141 active torsions:
REMARK  status: ('A' for Active; 'I' for Inactive)
REMARK    1  A    between atoms: _1  and  _3
REMARK    2  A    between atoms: _3  and  _4
REMARK    3  A    between atoms: _3  and  _6
REMARK    4  A    between atoms: _6  and  _7
REMARK    5  A    between atoms: _17  and  _19
REMARK    6  A    between atoms: _19  and  _20
REMARK    7  A    between atoms: _19  and  _22
REMARK    8  A    between atoms: _22  and  _23
REMARK    9  A    between atoms: _28  and  _29
REMARK   10  A    between atoms: _31  and  _33
REMARK   11  A    between atoms: _33  and  _34
REMARK   12  A    between atoms: _33  and  _36
REMARK   13  A    between atoms: _36  and  _37
REMARK   14  A    between atoms: _40  and  _42
REMARK   15  A    between atoms: _42  and  _43
REMARK   16  A    between atoms: _42  and  _45
REMARK   17  A    between atoms: _45  and  _46
REMARK   18  A    between atoms: _51  and  _53
REMARK   19  A    between atoms: _53  and  _54
REMARK   20  A    between atoms: _53  and  _56
REMARK   21  A    between atoms: _56  and  _57
REMARK   22  A    between atoms: _62  and  _64
REMARK   23  A    between atoms: _64  and  _65
REMARK   24  A    between atoms: _68  and  _70
REMARK   25  A    between atoms: _70  and  _71
REMARK   26  A    between atoms: _70  and  _73
REMARK   27  A    between atoms: _73  and  _74
REMARK   28  A    between atoms: _80  and  _82
REMARK   29  A    between atoms: _82  and  _83
REMARK   30  A    between atoms: _82  and  _85
REMARK   31  A    between atoms: _85  and  _86
REMARK   32  A    between atoms: _91  and  _93
REMARK   33  A    between atoms: _93  and  _94
REMARK   34  A    between atoms: _93  and  _96
REMARK   35  A    between atoms: _96  and  _97
REMARK   36  A    between atoms: _100  and  _102
REMARK   37  A    between atoms: _102  and  _103
REMARK   38  A    between atoms: _102  and  _105
REMARK   39  A    between atoms: _105  and  _106
REMARK   40  A    between atoms: _106  and  _107
REMARK   41  A    between atoms: _112  and  _114
REMARK   42  A    between atoms: _114  and  _115
REMARK   43  A    between atoms: _114  and  _117
REMARK   44  A    between atoms: _117  and  _118
REMARK   45  A    between atoms: _124  and  _126
REMARK   46  A    between atoms: _137  and  _140
REMARK   47  A    between atoms: _140  and  _141
REMARK   48  A    between atoms: _149  and  _150
REMARK   49  A    between atoms: _158  and  _160
REMARK   50  A    between atoms: _160  and  _161
REMARK   51  A    between atoms: _160  and  _163
REMARK   52  A    between atoms: _163  and  _164
REMARK   53  A    between atoms: _164  and  _165
REMARK   54  A    between atoms: _168  and  _170
REMARK   55  A    between atoms: _170  and  _171
REMARK   56  A    between atoms: _170  and  _173
REMARK   57  A    between atoms: _173  and  _174
REMARK   58  A    between atoms: _177  and  _179
REMARK   59  A    between atoms: _179  and  _180
REMARK   60  A    between atoms: _179  and  _182
REMARK   61  A    between atoms: _182  and  _183
REMARK   62  A    between atoms: _184  and  ZN_399
REMARK   63  A    between atoms: _188  and  _190
REMARK   64  A    between atoms: _190  and  _191
REMARK   65  A    between atoms: _190  and  _193
REMARK   66  A    between atoms: _193  and  _194
REMARK   67  A    between atoms: _197  and  _199
REMARK   68  A    between atoms: _199  and  _200
REMARK   69  A    between atoms: _199  and  _202
REMARK   70  A    between atoms: _205  and  _207
REMARK   71  A    between atoms: _207  and  _208
REMARK   72  A    between atoms: _207  and  _210
REMARK   73  A    between atoms: _210  and  _211
REMARK   74  A    between atoms: _216  and  _218
REMARK   75  A    between atoms: _218  and  _219
REMARK   76  A    between atoms: _218  and  _221
REMARK   77  A    between atoms: _221  and  _222
REMARK   78  A    between atoms: _228  and  _230
REMARK   79  A    between atoms: _230  and  _231
REMARK   80  A    between atoms: _233  and  _235
REMARK   81  A    between atoms: _235  and  _236
REMARK   82  A    between atoms: _235  and  _238
REMARK   83  A    between atoms: _241  and  _243
REMARK   84  A    between atoms: _243  and  _244
REMARK   85  A    between atoms: _243  and  _246
REMARK   86  A    between atoms: _246  and  _247
REMARK   87  A    between atoms: _250  and  _252
REMARK   88  A    between atoms: _252  and  _253
REMARK   89  A    between atoms: _256  and  _258
REMARK   90  A    between atoms: _258  and  _259
REMARK   91  A    between atoms: _258  and  _261
REMARK   92  A    between atoms: _264  and  _266
REMARK   93  A    between atoms: _266  and  _267
REMARK   94  A    between atoms: _266  and  _269
REMARK   95  A    between atoms: _269  and  _270
REMARK   96  A    between atoms: _273  and  _275
REMARK   97  A    between atoms: _275  and  _276
REMARK   98  A    between atoms: _275  and  _278
REMARK   99  A    between atoms: _278  and  _279
REMARK  100  A    between atoms: _281  and  _283
REMARK  101  A    between atoms: _283  and  _284
REMARK  102  A    between atoms: _283  and  _286
REMARK  103  A    between atoms: _286  and  _287
REMARK  104  A    between atoms: _290  and  _292
REMARK  105  A    between atoms: _292  and  _293
REMARK  106  A    between atoms: _292  and  _295
REMARK  107  A    between atoms: _295  and  _296
REMARK  108  A    between atoms: _299  and  _301
REMARK  109  A    between atoms: _301  and  _302
REMARK  110  A    between atoms: _301  and  _304
REMARK  111  A    between atoms: _304  and  _305
REMARK  112  A    between atoms: _309  and  _310
REMARK  113  A    between atoms: _316  and  _317
REMARK  114  A    between atoms: _322  and  _324
REMARK  115  A    between atoms: _324  and  _325
REMARK  116  A    between atoms: _324  and  _327
REMARK  117  A    between atoms: _327  and  _328
REMARK  118  A    between atoms: _331  and  _333
REMARK  119  A    between atoms: _333  and  _334
REMARK  120  A    between atoms: _333  and  _336
REMARK  121  A    between atoms: _336  and  _337
REMARK  122  A    between atoms: _340  and  _342
REMARK  123  A    between atoms: _342  and  _343
REMARK  124  A    between atoms: _342  and  _345
REMARK  125  A    between atoms: _347  and  _349
REMARK  126  A    between atoms: _349  and  _350
REMARK  127  A    between atoms: _349  and  _352
REMARK  128  A    between atoms: _355  and  _357
REMARK  129  A    between atoms: _357  and  _358
REMARK  130  A    between atoms: _357  and  _360
REMARK  131  A    between atoms: _360  and  _361
REMARK  132  A    between atoms: _371  and  _373
REMARK  133  A    between atoms: _373  and  _374
REMARK  134  A    between atoms: _373  and  _376
REMARK  135  A    between atoms: _376  and  _377
REMARK  136  A    between atoms: _382  and  _384
REMARK  137  A    between atoms: _384  and  _385
REMARK  138  A    between atoms: _384  and  _387
REMARK  139  A    between atoms: _387  and  _388
REMARK  140  A    between atoms: _388  and  _389
REMARK  141  A    between atoms: _389  and  _390
REMARK                            x       y       z     vdW  Elec       q    Type
REMARK                         _______ _______ _______ _____ _____    ______ ____
ROOT
ATOM      1  CG  TYR A   1       1.988  -6.914  11.806  0.00  0.00    -0.020 A 
ATOM      2  CD2 TYR A   1       1.595  -6.881  13.128  0.00  0.00    -0.001 A 
ATOM      3  CE2 TYR A   1       0.722  -5.890  13.575  0.00  0.00    +0.036 A 
ATOM      4  CZ  TYR A   1       0.238  -4.952  12.720  0.00  0.00    +0.134 A 
ATOM      5  CE1 TYR A   1       0.624  -4.947  11.386  0.00  0.00    +0.036 A 
ATOM      6  CD1 TYR A   1       1.491  -5.937  10.947  0.00  0.00    -0.001 A 
ENDROOT
BRANCH   4   7
ATOM      7  OH  TYR A   1      -0.629  -4.005  13.187  0.00  0.00    -0.506 OA
ATOM      8  HH  TYR A   1      -0.794  -4.157  14.151  0.00  0.00    +0.292 HD
ENDBRANCH   4   7
BRANCH   1   9
ATOM      9  CB  TYR A   1       2.941  -7.990  11.282  0.00  0.00    +0.051 C 
BRANCH   9  10
ATOM     10  CA  TYR A   1       4.427  -7.682  11.504  0.00  0.00    +0.137 C 
BRANCH  10  11
ATOM     11  N   TYR A   1       4.839  -6.521  10.736  0.00  0.00    -0.239 NA
ATOM     12  H   TYR A   1       4.934  -6.599   9.703  0.00  0.00    +0.142 HD
ENDBRANCH  10  11
BRANCH  10  13
ATOM     13  C   TYR A   1       5.287  -8.900  11.178  0.00  0.00    +0.224 C 
ATOM     14  O   TYR A   1       4.939 -10.041  11.512  0.00  0.00    -0.287 OA
ENDBRANCH  10  13
ENDBRANCH   9  10
ENDBRANCH   1   9
TORSDOF 5
REMARK  Name = ../refined-set-2016/3p5l/3p5l_pocket.pdb
REMARK  141 active torsions:
REMARK  status: ('A' for Active; 'I' for Inactive)
REMARK    1  A    between atoms: _1  and  _3
REMARK    2  A    between atoms: _3  and  _4
REMARK    3  A    between atoms: _3  and  _6
REMARK    4  A    between atoms: _6  and  _7
REMARK    5  A    between atoms: _17  and  _19
REMARK    6  A    between atoms: _19  and  _20
REMARK    7  A    between atoms: _19  and  _22
REMARK    8  A    between atoms: _22  and  _23
REMARK    9  A    between atoms: _28  and  _29
REMARK   10  A    between atoms: _31  and  _33
REMARK   11  A    between atoms: _33  and  _34
REMARK   12  A    between atoms: _33  and  _36
REMARK   13  A    between atoms: _36  and  _37
REMARK   14  A    between atoms: _40  and  _42
REMARK   15  A    between atoms: _42  and  _43
REMARK   16  A    between atoms: _42  and  _45
REMARK   17  A    between atoms: _45  and  _46
REMARK   18  A    between atoms: _51  and  _53
REMARK   19  A    between atoms: _53  and  _54
REMARK   20  A    between atoms: _53  and  _56
REMARK   21  A    between atoms: _56  and  _57
REMARK   22  A    between atoms: _62  and  _64
REMARK   23  A    between atoms: _64  and  _65
REMARK   24  A    between atoms: _68  and  _70
REMARK   25  A    between atoms: _70  and  _71
REMARK   26  A    between atoms: _70  and  _73
REMARK   27  A    between atoms: _73  and  _74
REMARK   28  A    between atoms: _80  and  _82
REMARK   29  A    between atoms: _82  and  _83
REMARK   30  A    between atoms: _82  and  _85
REMARK   31  A    between atoms: _85  and  _86
REMARK   32  A    between atoms: _91  and  _93
REMARK   33  A    between atoms: _93  and  _94
REMARK   34  A    between atoms: _93  and  _96
REMARK   35  A    between atoms: _96  and  _97
REMARK   36  A    between atoms: _100  and  _102
REMARK   37  A    between atoms: _102  and  _103
REMARK   38  A    between atoms: _102  and  _105
REMARK   39  A    between atoms: _105  and  _106
REMARK   40  A    between atoms: _106  and  _107
REMARK   41  A    between atoms: _112  and  _114
REMARK   42  A    between atoms: _114  and  _115
REMARK   43  A    between atoms: _114  and  _117
REMARK   44  A    between atoms: _117  and  _118
REMARK   45  A    between atoms: _124  and  _126
REMARK   46  A    between atoms: _137  and  _140
REMARK   47  A    between atoms: _140  and  _141
REMARK   48  A    between atoms: _149  and  _150
REMARK   49  A    between atoms: _158  and  _160
REMARK   50  A    between atoms: _160  and  _161
REMARK   51  A    between atoms: _160  and  _163
REMARK   52  A    between atoms: _163  and  _164
REMARK   53  A    between atoms: _164  and  _165
REMARK   54  A    between atoms: _168  and  _170
REMARK   55  A    between atoms: _170  and  _171
REMARK   56  A    between atoms: _170  and  _173
REMARK   57  A    between atoms: _173  and  _174
REMARK   58  A    between atoms: _177  and  _179
REMARK   59  A    between atoms: _179  and  _180
REMARK   60  A    between atoms: _179  and  _182
REMARK   61  A    between atoms: _182  and  _183
REMARK   62  A    between atoms: _184  and  ZN_399
REMARK   63  A    between atoms: _188  and  _190
REMARK   64  A    between atoms: _190  and  _191
REMARK   65  A    between atoms: _190  and  _193
REMARK   66  A    between atoms: _193  and  _194
REMARK   67  A    between atoms: _197  and  _199
REMARK   68  A    between atoms: _199  and  _200
REMARK   69  A    between atoms: _199  and  _202
REMARK   70  A    between atoms: _205  and  _207
REMARK   71  A    between atoms: _207  and  _208
REMARK   72  A    between atoms: _207  and  _210
REMARK   73  A    between atoms: _210  and  _211
REMARK   74  A    between atoms: _216  and  _218
REMARK   75  A    between atoms: _218  and  _219
REMARK   76  A    between atoms: _218  and  _221
REMARK   77  A    between atoms: _221  and  _222
REMARK   78  A    between atoms: _228  and  _230
REMARK   79  A    between atoms: _230  and  _231
REMARK   80  A    between atoms: _233  and  _235
REMARK   81  A    between atoms: _235  and  _236
REMARK   82  A    between atoms: _235  and  _238
REMARK   83  A    between atoms: _241  and  _243
REMARK   84  A    between atoms: _243  and  _244
REMARK   85  A    between atoms: _243  and  _246
REMARK   86  A    between atoms: _246  and  _247
REMARK   87  A    between atoms: _250  and  _252
REMARK   88  A    between atoms: _252  and  _253
REMARK   89  A    between atoms: _256  and  _258
REMARK   90  A    between atoms: _258  and  _259
REMARK   91  A    between atoms: _258  and  _261
REMARK   92  A    between atoms: _264  and  _266
REMARK   93  A    between atoms: _266  and  _267
REMARK   94  A    between atoms: _266  and  _269
REMARK   95  A    between atoms: _269  and  _270
REMARK   96  A    between atoms: _273  and  _275
REMARK   97  A    between atoms: _275  and  _276
REMARK   98  A    between atoms: _275  and  _278
REMARK   99  A    between atoms: _278  and  _279
REMARK  100  A    between atoms: _281  and  _283
REMARK  101  A    between atoms: _283  and  _284
REMARK  102  A    between atoms: _283  and  _286
REMARK  103  A    between atoms: _286  and  _287
REMARK  104  A    between atoms: _290  and  _292
REMARK  105  A    between atoms: _292  and  _293
REMARK  106  A    between atoms: _292  and  _295
REMARK  107  A    between atoms: _295  and  _296
REMARK  108  A    between atoms: _299  and  _301
REMARK  109  A    between atoms: _301  and  _302
REMARK  110  A    between atoms: _301  and  _304
REMARK  111  A    between atoms: _304  and  _305
REMARK  112  A    between atoms: _309  and  _310
REMARK  113  A    between atoms: _316  and  _317
REMARK  114  A    between atoms: _322  and  _324
REMARK  115  A    between atoms: _324  and  _325
REMARK  116  A    between atoms: _324  and  _327
REMARK  117  A    between atoms: _327  and  _328
REMARK  118  A    between atoms: _331  and  _333
REMARK  119  A    between atoms: _333  and  _334
REMARK  120  A    between atoms: _333  and  _336
REMARK  121  A    between atoms: _336  and  _337
REMARK  122  A    between atoms: _340  and  _342
REMARK  123  A    between atoms: _342  and  _343
REMARK  124  A    between atoms: _342  and  _345
REMARK  125  A    between atoms: _347  and  _349
REMARK  126  A    between atoms: _349  and  _350
REMARK  127  A    between atoms: _349  and  _352
REMARK  128  A    between atoms: _355  and  _357
REMARK  129  A    between atoms: _357  and  _358
REMARK  130  A    between atoms: _357  and  _360
REMARK  131  A    between atoms: _360  and  _361
REMARK  132  A    between atoms: _371  and  _373
REMARK  133  A    between atoms: _373  and  _374
REMARK  134  A    between atoms: _373  and  _376
REMARK  135  A    between atoms: _376  and  _377
REMARK  136  A    between atoms: _382  and  _384
REMARK  137  A    between atoms: _384  and  _385
REMARK  138  A    between atoms: _384  and  _387
REMARK  139  A    between atoms: _387  and  _388
REMARK  140  A    between atoms: _388  and  _389
REMARK  141  A    between atoms: _389  and  _390
REMARK                            x       y       z     vdW  Elec       q    Type
REMARK                         _______ _______ _______ _____ _____    ______ ____
ROOT
ATOM      1  CA  LEU A   1      -7.544   2.398   1.738  0.00  0.00    +0.133 C 
ENDROOT
BRANCH   1   2
ATOM      2  N   LEU A   1      -8.968   2.260   2.031  0.00  0.00    -0.239 NA
ATOM      3  H   LEU A   1      -9.264   2.022   2.999  0.00  0.00    +0.142 HD
ENDBRANCH   1   2
BRANCH   1   4
ATOM      4  C   LEU A   1      -6.794   1.183   2.293  0.00  0.00    +0.224 C 
ATOM      5  O   LEU A   1      -6.945   0.849   3.459  0.00  0.00    -0.287 OA
ENDBRANCH   1   4
BRANCH   1   6
ATOM      6  CB  LEU A   1      -6.975   3.658   2.406  0.00  0.00    +0.025 C 
BRANCH   6   7
ATOM      7  CG  LEU A   1      -5.443   3.798   2.406  0.00  0.00    +0.002 C 
ATOM      8  CD2 LEU A   1      -4.990   4.915   3.360  0.00  0.00    +0.000 C 
ATOM      9  CD1 LEU A   1      -4.946   4.036   1.037  0.00  0.00    +0.000 C 
ENDBRANCH   6   7
ENDBRANCH   1   6
TORSDOF 4
REMARK  Name = ../refined-set-2016/3p5l/3p5l_pocket.pdb
REMARK  141 active torsions:
REMARK  status: ('A' for Active; 'I' for Inactive)
REMARK    1  A    between atoms: _1  and  _3
REMARK    2  A    between atoms: _3  and  _4
REMARK    3  A    between atoms: _3  and  _6
REMARK    4  A    between atoms: _6  and  _7
REMARK    5  A    between atoms: _17  and  _19
REMARK    6  A    between atoms: _19  and  _20
REMARK    7  A    between atoms: _19  and  _22
REMARK    8  A    between atoms: _22  and  _23
REMARK    9  A    between atoms: _28  and  _29
REMARK   10  A    between atoms: _31  and  _33
REMARK   11  A    between atoms: _33  and  _34
REMARK   12  A    between atoms: _33  and  _36
REMARK   13  A    between atoms: _36  and  _37
REMARK   14  A    between atoms: _40  and  _42
REMARK   15  A    between atoms: _42  and  _43
REMARK   16  A    between atoms: _42  and  _45
REMARK   17  A    between atoms: _45  and  _46
REMARK   18  A    between atoms: _51  and  _53
REMARK   19  A    between atoms: _53  and  _54
REMARK   20  A    between atoms: _53  and  _56
REMARK   21  A    between atoms: _56  and  _57
REMARK   22  A    between atoms: _62  and  _64
REMARK   23  A    between atoms: _64  and  _65
REMARK   24  A    between atoms: _68  and  _70
REMARK   25  A    between atoms: _70  and  _71
REMARK   26  A    between atoms: _70  and  _73
REMARK   27  A    between atoms: _73  and  _74
REMARK   28  A    between atoms: _80  and  _82
REMARK   29  A    between atoms: _82  and  _83
REMARK   30  A    between atoms: _82  and  _85
REMARK   31  A    between atoms: _85  and  _86
REMARK   32  A    between atoms: _91  and  _93
REMARK   33  A    between atoms: _93  and  _94
REMARK   34  A    between atoms: _93  and  _96
REMARK   35  A    between atoms: _96  and  _97
REMARK   36  A    between atoms: _100  and  _102
REMARK   37  A    between atoms: _102  and  _103
REMARK   38  A    between atoms: _102  and  _105
REMARK   39  A    between atoms: _105  and  _106
REMARK   40  A    between atoms: _106  and  _107
REMARK   41  A    between atoms: _112  and  _114
REMARK   42  A    between atoms: _114  and  _115
REMARK   43  A    between atoms: _114  and  _117
REMARK   44  A    between atoms: _117  and  _118
REMARK   45  A    between atoms: _124  and  _126
REMARK   46  A    between atoms: _137  and  _140
REMARK   47  A    between atoms: _140  and  _141
REMARK   48  A    between atoms: _149  and  _150
REMARK   49  A    between atoms: _158  and  _160
REMARK   50  A    between atoms: _160  and  _161
REMARK   51  A    between atoms: _160  and  _163
REMARK   52  A    between atoms: _163  and  _164
REMARK   53  A    between atoms: _164  and  _165
REMARK   54  A    between atoms: _168  and  _170
REMARK   55  A    between atoms: _170  and  _171
REMARK   56  A    between atoms: _170  and  _173
REMARK   57  A    between atoms: _173  and  _174
REMARK   58  A    between atoms: _177  and  _179
REMARK   59  A    between atoms: _179  and  _180
REMARK   60  A    between atoms: _179  and  _182
REMARK   61  A    between atoms: _182  and  _183
REMARK   62  A    between atoms: _184  and  ZN_399
REMARK   63  A    between atoms: _188  and  _190
REMARK   64  A    between atoms: _190  and  _191
REMARK   65  A    between atoms: _190  and  _193
REMARK   66  A    between atoms: _193  and  _194
REMARK   67  A    between atoms: _197  and  _199
REMARK   68  A    between atoms: _199  and  _200
REMARK   69  A    between atoms: _199  and  _202
REMARK   70  A    between atoms: _205  and  _207
REMARK   71  A    between atoms: _207  and  _208
REMARK   72  A    between atoms: _207  and  _210
REMARK   73  A    between atoms: _210  and  _211
REMARK   74  A    between atoms: _216  and  _218
REMARK   75  A    between atoms: _218  and  _219
REMARK   76  A    between atoms: _218  and  _221
REMARK   77  A    between atoms: _221  and  _222
REMARK   78  A    between atoms: _228  and  _230
REMARK   79  A    between atoms: _230  and  _231
REMARK   80  A    between atoms: _233  and  _235
REMARK   81  A    between atoms: _235  and  _236
REMARK   82  A    between atoms: _235  and  _238
REMARK   83  A    between atoms: _241  and  _243
REMARK   84  A    between atoms: _243  and  _244
REMARK   85  A    between atoms: _243  and  _246
REMARK   86  A    between atoms: _246  and  _247
REMARK   87  A    between atoms: _250  and  _252
REMARK   88  A    between atoms: _252  and  _253
REMARK   89  A    between atoms: _256  and  _258
REMARK   90  A    between atoms: _258  and  _259
REMARK   91  A    between atoms: _258  and  _261
REMARK   92  A    between atoms: _264  and  _266
REMARK   93  A    between atoms: _266  and  _267
REMARK   94  A    between atoms: _266  and  _269
REMARK   95  A    between atoms: _269  and  _270
REMARK   96  A    between atoms: _273  and  _275
REMARK   97  A    between atoms: _275  and  _276
REMARK   98  A    between atoms: _275  and  _278
REMARK   99  A    between atoms: _278  and  _279
REMARK  100  A    between atoms: _281  and  _283
REMARK  101  A    between atoms: _283  and  _284
REMARK  102  A    between atoms: _283  and  _286
REMARK  103  A    between atoms: _286  and  _287
REMARK  104  A    between atoms: _290  and  _292
REMARK  105  A    between atoms: _292  and  _293
REMARK  106  A    between atoms: _292  and  _295
REMARK  107  A    between atoms: _295  and  _296
REMARK  108  A    between atoms: _299  and  _301
REMARK  109  A    between atoms: _301  and  _302
REMARK  110  A    between atoms: _301  and  _304
REMARK  111  A    between atoms: _304  and  _305
REMARK  112  A    between atoms: _309  and  _310
REMARK  113  A    between atoms: _316  and  _317
REMARK  114  A    between atoms: _322  and  _324
REMARK  115  A    between atoms: _324  and  _325
REMARK  116  A    between atoms: _324  and  _327
REMARK  117  A    between atoms: _327  and  _328
REMARK  118  A    between atoms: _331  and  _333
REMARK  119  A    between atoms: _333  and  _334
REMARK  120  A    between atoms: _333  and  _336
REMARK  121  A    between atoms: _336  and  _337
REMARK  122  A    between atoms: _340  and  _342
REMARK  123  A    between atoms: _342  and  _343
REMARK  124  A    between atoms: _342  and  _345
REMARK  125  A    between atoms: _347  and  _349
REMARK  126  A    between atoms: _349  and  _350
REMARK  127  A    between atoms: _349  and  _352
REMARK  128  A    between atoms: _355  and  _357
REMARK  129  A    between atoms: _357  and  _358
REMARK  130  A    between atoms: _357  and  _360
REMARK  131  A    between atoms: _360  and  _361
REMARK  132  A    between atoms: _371  and  _373
REMARK  133  A    between atoms: _373  and  _374
REMARK  134  A    between atoms: _373  and  _376
REMARK  135  A    between atoms: _376  and  _377
REMARK  136  A    between atoms: _382  and  _384
REMARK  137  A    between atoms: _384  and  _385
REMARK  138  A    between atoms: _384  and  _387
REMARK  139  A    between atoms: _387  and  _388
REMARK  140  A    between atoms: _388  and  _389
REMARK  141  A    between atoms: _389  and  _390
REMARK                            x       y       z     vdW  Elec       q    Type
REMARK                         _______ _______ _______ _____ _____    ______ ____
ROOT
ATOM      1  CB  ASN A   1      -2.638   2.165   5.383  0.00  0.00    +0.110 C 
ENDROOT
BRANCH   1   2
ATOM      2  CG  ASN A   1      -2.853   1.297   6.574  0.00  0.00    +0.221 C 
ATOM      3  ND2 ASN A   1      -3.221   1.920   7.691  0.00  0.00    -0.329 N 
ATOM      4 HD21 ASN A   1      -3.382   1.375   8.562  0.00  0.00    +0.145 HD
ATOM      5 HD22 ASN A   1      -3.348   2.952   7.693  0.00  0.00    +0.145 HD
ATOM      6  OD1 ASN A   1      -2.690   0.090   6.516  0.00  0.00    -0.275 OA
ENDBRANCH   1   2
BRANCH   1   7
ATOM      7  CA  ASN A   1      -2.287   1.381   4.111  0.00  0.00    +0.142 C 
BRANCH   7   8
ATOM      8  N   ASN A   1      -3.392   0.524   3.659  0.00  0.00    -0.239 NA
ATOM      9  H   ASN A   1      -3.950  -0.004   4.360  0.00  0.00    +0.142 HD
ENDBRANCH   7   8
BRANCH   7  10
ATOM     10  C   ASN A   1      -1.008   0.589   4.351  0.00  0.00    +0.225 C 
ATOM     11  O   ASN A   1      -0.037   1.114   4.924  0.00  0.00    -0.287 OA
ENDBRANCH   7  10
ENDBRANCH   1   7
TORSDOF 4
REMARK  Name = ../refined-set-2016/3p5l/3p5l_pocket.pdb
REMARK  141 active torsions:
REMARK  status: ('A' for Active; 'I' for Inactive)
REMARK    1  A    between atoms: _1  and  _3
REMARK    2  A    between atoms: _3  and  _4
REMARK    3  A    between atoms: _3  and  _6
REMARK    4  A    between atoms: _6  and  _7
REMARK    5  A    between atoms: _17  and  _19
REMARK    6  A    between atoms: _19  and  _20
REMARK    7  A    between atoms: _19  and  _22
REMARK    8  A    between atoms: _22  and  _23
REMARK    9  A    between atoms: _28  and  _29
REMARK   10  A    between atoms: _31  and  _33
REMARK   11  A    between atoms: _33  and  _34
REMARK   12  A    between atoms: _33  and  _36
REMARK   13  A    between atoms: _36  and  _37
REMARK   14  A    between atoms: _40  and  _42
REMARK   15  A    between atoms: _42  and  _43
REMARK   16  A    between atoms: _42  and  _45
REMARK   17  A    between atoms: _45  and  _46
REMARK   18  A    between atoms: _51  and  _53
REMARK   19  A    between atoms: _53  and  _54
REMARK   20  A    between atoms: _53  and  _56
REMARK   21  A    between atoms: _56  and  _57
REMARK   22  A    between atoms: _62  and  _64
REMARK   23  A    between atoms: _64  and  _65
REMARK   24  A    between atoms: _68  and  _70
REMARK   25  A    between atoms: _70  and  _71
REMARK   26  A    between atoms: _70  and  _73
REMARK   27  A    between atoms: _73  and  _74
REMARK   28  A    between atoms: _80  and  _82
REMARK   29  A    between atoms: _82  and  _83
REMARK   30  A    between atoms: _82  and  _85
REMARK   31  A    between atoms: _85  and  _86
REMARK   32  A    between atoms: _91  and  _93
REMARK   33  A    between atoms: _93  and  _94
REMARK   34  A    between atoms: _93  and  _96
REMARK   35  A    between atoms: _96  and  _97
REMARK   36  A    between atoms: _100  and  _102
REMARK   37  A    between atoms: _102  and  _103
REMARK   38  A    between atoms: _102  and  _105
REMARK   39  A    between atoms: _105  and  _106
REMARK   40  A    between atoms: _106  and  _107
REMARK   41  A    between atoms: _112  and  _114
REMARK   42  A    between atoms: _114  and  _115
REMARK   43  A    between atoms: _114  and  _117
REMARK   44  A    between atoms: _117  and  _118
REMARK   45  A    between atoms: _124  and  _126
REMARK   46  A    between atoms: _137  and  _140
REMARK   47  A    between atoms: _140  and  _141
REMARK   48  A    between atoms: _149  and  _150
REMARK   49  A    between atoms: _158  and  _160
REMARK   50  A    between atoms: _160  and  _161
REMARK   51  A    between atoms: _160  and  _163
REMARK   52  A    between atoms: _163  and  _164
REMARK   53  A    between atoms: _164  and  _165
REMARK   54  A    between atoms: _168  and  _170
REMARK   55  A    between atoms: _170  and  _171
REMARK   56  A    between atoms: _170  and  _173
REMARK   57  A    between atoms: _173  and  _174
REMARK   58  A    between atoms: _177  and  _179
REMARK   59  A    between atoms: _179  and  _180
REMARK   60  A    between atoms: _179  and  _182
REMARK   61  A    between atoms: _182  and  _183
REMARK   62  A    between atoms: _184  and  ZN_399
REMARK   63  A    between atoms: _188  and  _190
REMARK   64  A    between atoms: _190  and  _191
REMARK   65  A    between atoms: _190  and  _193
REMARK   66  A    between atoms: _193  and  _194
REMARK   67  A    between atoms: _197  and  _199
REMARK   68  A    between atoms: _199  and  _200
REMARK   69  A    between atoms: _199  and  _202
REMARK   70  A    between atoms: _205  and  _207
REMARK   71  A    between atoms: _207  and  _208
REMARK   72  A    between atoms: _207  and  _210
REMARK   73  A    between atoms: _210  and  _211
REMARK   74  A    between atoms: _216  and  _218
REMARK   75  A    between atoms: _218  and  _219
REMARK   76  A    between atoms: _218  and  _221
REMARK   77  A    between atoms: _221  and  _222
REMARK   78  A    between atoms: _228  and  _230
REMARK   79  A    between atoms: _230  and  _231
REMARK   80  A    between atoms: _233  and  _235
REMARK   81  A    between atoms: _235  and  _236
REMARK   82  A    between atoms: _235  and  _238
REMARK   83  A    between atoms: _241  and  _243
REMARK   84  A    between atoms: _243  and  _244
REMARK   85  A    between atoms: _243  and  _246
REMARK   86  A    between atoms: _246  and  _247
REMARK   87  A    between atoms: _250  and  _252
REMARK   88  A    between atoms: _252  and  _253
REMARK   89  A    between atoms: _256  and  _258
REMARK   90  A    between atoms: _258  and  _259
REMARK   91  A    between atoms: _258  and  _261
REMARK   92  A    between atoms: _264  and  _266
REMARK   93  A    between atoms: _266  and  _267
REMARK   94  A    between atoms: _266  and  _269
REMARK   95  A    between atoms: _269  and  _270
REMARK   96  A    between atoms: _273  and  _275
REMARK   97  A    between atoms: _275  and  _276
REMARK   98  A    between atoms: _275  and  _278
REMARK   99  A    between atoms: _278  and  _279
REMARK  100  A    between atoms: _281  and  _283
REMARK  101  A    between atoms: _283  and  _284
REMARK  102  A    between atoms: _283  and  _286
REMARK  103  A    between atoms: _286  and  _287
REMARK  104  A    between atoms: _290  and  _292
REMARK  105  A    between atoms: _292  and  _293
REMARK  106  A    between atoms: _292  and  _295
REMARK  107  A    between atoms: _295  and  _296
REMARK  108  A    between atoms: _299  and  _301
REMARK  109  A    between atoms: _301  and  _302
REMARK  110  A    between atoms: _301  and  _304
REMARK  111  A    between atoms: _304  and  _305
REMARK  112  A    between atoms: _309  and  _310
REMARK  113  A    between atoms: _316  and  _317
REMARK  114  A    between atoms: _322  and  _324
REMARK  115  A    between atoms: _324  and  _325
REMARK  116  A    between atoms: _324  and  _327
REMARK  117  A    between atoms: _327  and  _328
REMARK  118  A    between atoms: _331  and  _333
REMARK  119  A    between atoms: _333  and  _334
REMARK  120  A    between atoms: _333  and  _336
REMARK  121  A    between atoms: _336  and  _337
REMARK  122  A    between atoms: _340  and  _342
REMARK  123  A    between atoms: _342  and  _343
REMARK  124  A    between atoms: _342  and  _345
REMARK  125  A    between atoms: _347  and  _349
REMARK  126  A    between atoms: _349  and  _350
REMARK  127  A    between atoms: _349  and  _352
REMARK  128  A    between atoms: _355  and  _357
REMARK  129  A    between atoms: _357  and  _358
REMARK  130  A    between atoms: _357  and  _360
REMARK  131  A    between atoms: _360  and  _361
REMARK  132  A    between atoms: _371  and  _373
REMARK  133  A    between atoms: _373  and  _374
REMARK  134  A    between atoms: _373  and  _376
REMARK  135  A    between atoms: _376  and  _377
REMARK  136  A    between atoms: _382  and  _384
REMARK  137  A    between atoms: _384  and  _385
REMARK  138  A    between atoms: _384  and  _387
REMARK  139  A    between atoms: _387  and  _388
REMARK  140  A    between atoms: _388  and  _389
REMARK  141  A    between atoms: _389  and  _390
REMARK                            x       y       z     vdW  Elec       q    Type
REMARK                         _______ _______ _______ _____ _____    ______ ____
ROOT
ATOM      1  CA  PHE A   3      -7.458  -1.537   5.325  0.00  0.00    +0.153 C 
ENDROOT
BRANCH   1   3
ATOM      2  C   ALA A   2      -5.347  -2.377   6.156  0.00  0.00    +0.241 C 
ATOM      3  N   PHE A   3      -6.667  -2.447   6.156  0.00  0.00    -0.297 N 
ATOM      4  H   PHE A   3      -7.147  -3.153   6.750  0.00  0.00    +0.150 HD
ATOM      5  O   ALA A   2      -4.712  -1.796   5.259  0.00  0.00    -0.273 OA
BRANCH   2   6
ATOM      6  CA  ALA A   2      -4.601  -3.108   7.285  0.00  0.00    +0.149 C 
ATOM      7  CB  ALA A   2      -5.178  -2.768   8.670  0.00  0.00    +0.031 C 
BRANCH   6  10
ATOM      8  C   HIS A   1      -2.219  -3.358   7.755  0.00  0.00    +0.239 C 
ATOM      9  O   HIS A   1      -2.384  -4.363   8.447  0.00  0.00    -0.274 OA
ATOM     10  N   ALA A   2      -3.207  -2.710   7.191  0.00  0.00    -0.297 N 
ATOM     11  H   ALA A   2      -2.980  -1.857   6.641  0.00  0.00    +0.150 HD
BRANCH   8  12
ATOM     12  CA  HIS A   1      -0.814  -2.826   7.477  0.00  0.00    +0.151 C 
BRANCH  12  13
ATOM     13  N   HIS A   1      -0.708  -2.021   6.258  0.00  0.00    -0.238 NA
ATOM     14  H   HIS A   1      -1.355  -1.221   6.108  0.00  0.00    +0.142 HD
ENDBRANCH  12  13
BRANCH  12  15
ATOM     15  CB  HIS A   1      -0.170  -2.205   8.709  0.00  0.00    +0.074 C 
BRANCH  15  16
ATOM     16  CG  HIS A   1      -0.768  -0.915   9.146  0.00  0.00    +0.082 A 
ATOM     17  ND1 HIS A   1      -1.928  -0.841   9.887  0.00  0.00    -0.227 NA
ATOM     18  CE1 HIS A   1      -2.200   0.422  10.155  0.00  0.00    +0.199 A 
ATOM     19  NE2 HIS A   1      -1.245   1.172   9.627  0.00  0.00    -0.221 NA
ATOM     20  CD2 HIS A   1      -0.336   0.358   8.990  0.00  0.00    +0.115 A 
ENDBRANCH  15  16
ENDBRANCH  12  15
ENDBRANCH   8  12
ENDBRANCH   6  10
ENDBRANCH   2   6
ENDBRANCH   1   3
BRANCH   1  21
ATOM     21  C   PHE A   3      -8.341  -0.661   6.230  0.00  0.00    +0.241 C 
ATOM     22  O   PHE A   3      -8.975  -1.124   7.172  0.00  0.00    -0.273 OA
ATOM     23  N   ASN A   4      -8.383   0.622   5.895  0.00  0.00    -0.298 N 
ATOM     24  H   ASN A   4      -7.813   0.952   5.090  0.00  0.00    +0.150 HD
BRANCH  23  25
ATOM     25  CA  ASN A   4      -9.204   1.584   6.620  0.00  0.00    +0.146 C 
BRANCH  25  26
ATOM     26  C   ASN A   4     -10.415   1.999   5.786  0.00  0.00    +0.227 C 
ATOM     27  O   ASN A   4     -10.264   2.415   4.625  0.00  0.00    -0.286 OA
ENDBRANCH  25  26
BRANCH  25  28
ATOM     28  CB  ASN A   4      -8.416   2.866   6.927  0.00  0.00    +0.112 C 
BRANCH  28  29
ATOM     29  CG  ASN A   4      -7.261   2.652   7.861  0.00  0.00    +0.222 C 
ATOM     30  OD1 ASN A   4      -7.219   1.679   8.587  0.00  0.00    -0.275 OA
ATOM     31  ND2 ASN A   4      -6.306   3.589   7.852  0.00  0.00    -0.329 N 
ATOM     32 HD21 ASN A   4      -5.485   3.501   8.484  0.00  0.00    +0.145 HD
ATOM     33 HD22 ASN A   4      -6.385   4.406   7.213  0.00  0.00    +0.145 HD
ENDBRANCH  28  29
ENDBRANCH  25  28
ENDBRANCH  23  25
ENDBRANCH   1  21
BRANCH   1  34
ATOM     34  CB  PHE A   3      -8.281  -2.251   4.226  0.00  0.00    +0.055 C 
BRANCH  34  35
ATOM     35  CG  PHE A   3      -9.303  -3.179   4.748  0.00  0.00    -0.020 A 
ATOM     36  CD2 PHE A   3     -10.566  -2.732   5.103  0.00  0.00    -0.004 A 
ATOM     37  CE2 PHE A   3     -11.493  -3.609   5.606  0.00  0.00    -0.000 A 
ATOM     38  CZ  PHE A   3     -11.173  -4.974   5.747  0.00  0.00    -0.000 A 
ATOM     39  CE1 PHE A   3      -9.928  -5.415   5.402  0.00  0.00    -0.000 A 
ATOM     40  CD1 PHE A   3      -9.004  -4.525   4.878  0.00  0.00    -0.004 A 
ENDBRANCH  34  35
ENDBRANCH   1  34
TORSDOF 14
REMARK  Name = ../refined-set-2016/3p5l/3p5l_pocket.pdb
REMARK  141 active torsions:
REMARK  status: ('A' for Active; 'I' for Inactive)
REMARK    1  A    between atoms: _1  and  _3
REMARK    2  A    between atoms: _3  and  _4
REMARK    3  A    between atoms: _3  and  _6
REMARK    4  A    between atoms: _6  and  _7
REMARK    5  A    between atoms: _17  and  _19
REMARK    6  A    between atoms: _19  and  _20
REMARK    7  A    between atoms: _19  and  _22
REMARK    8  A    between atoms: _22  and  _23
REMARK    9  A    between atoms: _28  and  _29
REMARK   10  A    between atoms: _31  and  _33
REMARK   11  A    between atoms: _33  and  _34
REMARK   12  A    between atoms: _33  and  _36
REMARK   13  A    between atoms: _36  and  _37
REMARK   14  A    between atoms: _40  and  _42
REMARK   15  A    between atoms: _42  and  _43
REMARK   16  A    between atoms: _42  and  _45
REMARK   17  A    between atoms: _45  and  _46
REMARK   18  A    between atoms: _51  and  _53
REMARK   19  A    between atoms: _53  and  _54
REMARK   20  A    between atoms: _53  and  _56
REMARK   21  A    between atoms: _56  and  _57
REMARK   22  A    between atoms: _62  and  _64
REMARK   23  A    between atoms: _64  and  _65
REMARK   24  A    between atoms: _68  and  _70
REMARK   25  A    between atoms: _70  and  _71
REMARK   26  A    between atoms: _70  and  _73
REMARK   27  A    between atoms: _73  and  _74
REMARK   28  A    between atoms: _80  and  _82
REMARK   29  A    between atoms: _82  and  _83
REMARK   30  A    between atoms: _82  and  _85
REMARK   31  A    between atoms: _85  and  _86
REMARK   32  A    between atoms: _91  and  _93
REMARK   33  A    between atoms: _93  and  _94
REMARK   34  A    between atoms: _93  and  _96
REMARK   35  A    between atoms: _96  and  _97
REMARK   36  A    between atoms: _100  and  _102
REMARK   37  A    between atoms: _102  and  _103
REMARK   38  A    between atoms: _102  and  _105
REMARK   39  A    between atoms: _105  and  _106
REMARK   40  A    between atoms: _106  and  _107
REMARK   41  A    between atoms: _112  and  _114
REMARK   42  A    between atoms: _114  and  _115
REMARK   43  A    between atoms: _114  and  _117
REMARK   44  A    between atoms: _117  and  _118
REMARK   45  A    between atoms: _124  and  _126
REMARK   46  A    between atoms: _137  and  _140
REMARK   47  A    between atoms: _140  and  _141
REMARK   48  A    between atoms: _149  and  _150
REMARK   49  A    between atoms: _158  and  _160
REMARK   50  A    between atoms: _160  and  _161
REMARK   51  A    between atoms: _160  and  _163
REMARK   52  A    between atoms: _163  and  _164
REMARK   53  A    between atoms: _164  and  _165
REMARK   54  A    between atoms: _168  and  _170
REMARK   55  A    between atoms: _170  and  _171
REMARK   56  A    between atoms: _170  and  _173
REMARK   57  A    between atoms: _173  and  _174
REMARK   58  A    between atoms: _177  and  _179
REMARK   59  A    between atoms: _179  and  _180
REMARK   60  A    between atoms: _179  and  _182
REMARK   61  A    between atoms: _182  and  _183
REMARK   62  A    between atoms: _184  and  ZN_399
REMARK   63  A    between atoms: _188  and  _190
REMARK   64  A    between atoms: _190  and  _191
REMARK   65  A    between atoms: _190  and  _193
REMARK   66  A    between atoms: _193  and  _194
REMARK   67  A    between atoms: _197  and  _199
REMARK   68  A    between atoms: _199  and  _200
REMARK   69  A    between atoms: _199  and  _202
REMARK   70  A    between atoms: _205  and  _207
REMARK   71  A    between atoms: _207  and  _208
REMARK   72  A    between atoms: _207  and  _210
REMARK   73  A    between atoms: _210  and  _211
REMARK   74  A    between atoms: _216  and  _218
REMARK   75  A    between atoms: _218  and  _219
REMARK   76  A    between atoms: _218  and  _221
REMARK   77  A    between atoms: _221  and  _222
REMARK   78  A    between atoms: _228  and  _230
REMARK   79  A    between atoms: _230  and  _231
REMARK   80  A    between atoms: _233  and  _235
REMARK   81  A    between atoms: _235  and  _236
REMARK   82  A    between atoms: _235  and  _238
REMARK   83  A    between atoms: _241  and  _243
REMARK   84  A    between atoms: _243  and  _244
REMARK   85  A    between atoms: _243  and  _246
REMARK   86  A    between atoms: _246  and  _247
REMARK   87  A    between atoms: _250  and  _252
REMARK   88  A    between atoms: _252  and  _253
REMARK   89  A    between atoms: _256  and  _258
REMARK   90  A    between atoms: _258  and  _259
REMARK   91  A    between atoms: _258  and  _261
REMARK   92  A    between atoms: _264  and  _266
REMARK   93  A    between atoms: _266  and  _267
REMARK   94  A    between atoms: _266  and  _269
REMARK   95  A    between atoms: _269  and  _270
REMARK   96  A    between atoms: _273  and  _275
REMARK   97  A    between atoms: _275  and  _276
REMARK   98  A    between atoms: _275  and  _278
REMARK   99  A    between atoms: _278  and  _279
REMARK  100  A    between atoms: _281  and  _283
REMARK  101  A    between atoms: _283  and  _284
REMARK  102  A    between atoms: _283  and  _286
REMARK  103  A    between atoms: _286  and  _287
REMARK  104  A    between atoms: _290  and  _292
REMARK  105  A    between atoms: _292  and  _293
REMARK  106  A    between atoms: _292  and  _295
REMARK  107  A    between atoms: _295  and  _296
REMARK  108  A    between atoms: _299  and  _301
REMARK  109  A    between atoms: _301  and  _302
REMARK  110  A    between atoms: _301  and  _304
REMARK  111  A    between atoms: _304  and  _305
REMARK  112  A    between atoms: _309  and  _310
REMARK  113  A    between atoms: _316  and  _317
REMARK  114  A    between atoms: _322  and  _324
REMARK  115  A    between atoms: _324  and  _325
REMARK  116  A    between atoms: _324  and  _327
REMARK  117  A    between atoms: _327  and  _328
REMARK  118  A    between atoms: _331  and  _333
REMARK  119  A    between atoms: _333  and  _334
REMARK  120  A    between atoms: _333  and  _336
REMARK  121  A    between atoms: _336  and  _337
REMARK  122  A    between atoms: _340  and  _342
REMARK  123  A    between atoms: _342  and  _343
REMARK  124  A    between atoms: _342  and  _345
REMARK  125  A    between atoms: _347  and  _349
REMARK  126  A    between atoms: _349  and  _350
REMARK  127  A    between atoms: _349  and  _352
REMARK  128  A    between atoms: _355  and  _357
REMARK  129  A    between atoms: _357  and  _358
REMARK  130  A    between atoms: _357  and  _360
REMARK  131  A    between atoms: _360  and  _361
REMARK  132  A    between atoms: _371  and  _373
REMARK  133  A    between atoms: _373  and  _374
REMARK  134  A    between atoms: _373  and  _376
REMARK  135  A    between atoms: _376  and  _377
REMARK  136  A    between atoms: _382  and  _384
REMARK  137  A    between atoms: _384  and  _385
REMARK  138  A    between atoms: _384  and  _387
REMARK  139  A    between atoms: _387  and  _388
REMARK  140  A    between atoms: _388  and  _389
REMARK  141  A    between atoms: _389  and  _390
REMARK                            x       y       z     vdW  Elec       q    Type
REMARK                         _______ _______ _______ _____ _____    ______ ____
ROOT
ATOM      1  C   UNK A   4     -10.303  -1.316  10.298  0.00  0.00    +0.000 C 
ATOM      2  C   UNK A   4     -10.374  -2.568  11.133  0.00  0.00    +0.000 C 
ATOM      3  O   UNK A   4     -11.010  -2.601  12.176  0.00  0.00    +0.000 OA
ATOM      4  N   HIS A   5      -9.682  -3.597  10.668  0.00  0.00    +0.000 N 
ATOM      5  CA  HIS A   5      -9.638  -4.877  11.368  0.00  0.00    +0.000 C 
ATOM      6  C   HIS A   5      -8.196  -5.324  11.574  0.00  0.00    +0.000 C 
ATOM      7  N   UNK A   6      -8.042  -6.273  12.497  0.00  0.00    +0.000 N 
ATOM      8  H   UNK A   6      -8.847  -6.476  13.124  0.00  0.00    +0.000 HD
ATOM      9  C   UNK A   6      -6.830  -7.039  12.685  0.00  0.00    +0.000 C 
ATOM     10  C   UNK A   6      -6.193  -6.770  14.059  0.00  0.00    +0.000 C 
ATOM     11  C   UNK A   6      -5.913  -5.326  14.342  0.00  0.00    +0.000 A 
ATOM     12  C   UNK A   6      -6.728  -4.300  14.686  0.00  0.00    +0.000 A 
ATOM     13  N   UNK A   6      -5.941  -3.161  14.776  0.00  0.00    +0.000 N 
ATOM     14 ZN   UNK A   6      -6.623  -1.287  15.342  0.00  0.00    +0.000 Zn
ATOM     15  N   UNK A   4      -7.481  -0.597  13.622  0.00  0.00    +0.000 N 
ATOM     16  C   UNK A   4      -8.022   0.601  13.454  0.00  0.00    +0.000 A 
ATOM     17  N   UNK A   4      -8.528   0.660  12.237  0.00  0.00    +0.000 NA
ATOM     18  C   UNK A   4      -8.321  -0.549  11.595  0.00  0.00    +0.000 A 
ATOM     19  C   UNK A   4      -7.688  -1.337  12.487  0.00  0.00    +0.000 A 
ATOM     20  C   UNK A   6      -4.686  -3.498  14.512  0.00  0.00    +0.000 A 
ATOM     21  N   UNK A   6      -4.658  -4.783  14.186  0.00  0.00    +0.000 NA
ATOM     22  O   HIS A   5      -7.298  -4.896  10.872  0.00  0.00    +0.000 OA
ATOM     23  H   HIS A   5      -9.155  -3.490   9.778  0.00  0.00    +0.000 HD
ATOM     24  C   UNK A   4      -8.862  -0.844  10.235  0.00  0.00    +0.000 C 
ENDROOT
BRANCH  14  25
ATOM     25  N   UNK A   6      -8.102  -2.014  16.587  0.00  0.00    +0.000 N 
ATOM     26  C   UNK A   6      -7.755  -2.948  17.451  0.00  0.00    +0.000 A 
ATOM     27  N   UNK A   6      -8.855  -3.424  18.019  0.00  0.00    +0.000 NA
ATOM     28  C   UNK A   6      -9.946  -2.807  17.465  0.00  0.00    +0.000 A 
ATOM     29  C   UNK A   6      -9.478  -1.900  16.582  0.00  0.00    +0.000 A 
BRANCH  29  30
ATOM     30  C   UNK A   6     -10.211  -0.948  15.706  0.00  0.00    +0.000 C 
BRANCH  30  31
ATOM     31  C   UNK A   6     -11.725  -1.274  15.614  0.00  0.00    +0.000 C 
BRANCH  31  32
ATOM     32  N   UNK A   6     -11.944  -2.526  14.878  0.00  0.00    +0.000 N 
ATOM     33  C   LEU A   1     -12.570  -3.597  15.387  0.00  0.00    +0.000 C 
ATOM     34  O   LEU A   1     -12.958  -3.669  16.544  0.00  0.00    +0.000 OA
ATOM     35  H   UNK A   6     -11.592  -2.586  13.901  0.00  0.00    +0.000 HD
BRANCH  33  36
ATOM     36  CA  LEU A   1     -12.798  -4.726  14.396  0.00  0.00    +0.000 C 
BRANCH  36  37
ATOM     37  N   LEU A   1     -12.407  -5.995  15.003  0.00  0.00    +0.000 NA
ATOM     38  H   LEU A   1     -13.127  -6.518  15.541  0.00  0.00    +0.000 HD
ENDBRANCH  36  37
BRANCH  36  39
ATOM     39  CB  LEU A   1     -14.295  -4.818  14.067  0.00  0.00    +0.000 C 
BRANCH  39  40
ATOM     40  CG  LEU A   1     -15.049  -3.551  13.644  0.00  0.00    +0.000 C 
ATOM     41  CD2 LEU A   1     -16.524  -3.902  13.379  0.00  0.00    +0.000 C 
ATOM     42  CD1 LEU A   1     -14.401  -2.897  12.448  0.00  0.00    +0.000 C 
ENDBRANCH  39  40
ENDBRANCH  36  39
ENDBRANCH  33  36
ENDBRANCH  31  32
BRANCH  31  43
ATOM     43  C   UNK A   6     -12.439  -0.157  14.908  0.00  0.00    +0.000 C 
ATOM     44  N   LEU A   3     -13.491   0.367  15.550  0.00  0.00    +0.000 N 
ATOM     45  H   LEU A   3     -13.836  -0.123  16.400  0.00  0.00    +0.000 HD
ATOM     46  O   UNK A   6     -12.032   0.240  13.811  0.00  0.00    +0.000 OA
BRANCH  44  47
ATOM     47  CA  LEU A   3     -14.188   1.590  15.129  0.00  0.00    +0.000 C 
BRANCH  47  48
ATOM     48  C   LEU A   3     -13.576   2.757  15.909  0.00  0.00    +0.000 C 
ATOM     49  O   LEU A   3     -13.669   2.818  17.142  0.00  0.00    +0.000 OA
ATOM     50  N   UNK A   4     -12.859   3.604  15.185  0.00  0.00    +0.000 N 
ATOM     51  H   UNK A   4     -12.887   3.532  14.148  0.00  0.00    +0.000 HD
BRANCH  50  52
ATOM     52  C   UNK A   4     -12.028   4.640  15.805  0.00  0.00    +0.000 C 
BRANCH  52  53
ATOM     53  C   UNK A   4     -12.751   5.966  15.859  0.00  0.00    +0.000 C 
ATOM     54  N   HIS A   5     -12.782   6.562  17.047  0.00  0.00    +0.000 N 
ATOM     55  H   HIS A   5     -12.324   6.102  17.859  0.00  0.00    +0.000 HD
ATOM     56  O   UNK A   4     -13.248   6.450  14.836  0.00  0.00    +0.000 OA
BRANCH  54  57
ATOM     57  CA  HIS A   5     -13.447   7.850  17.235  0.00  0.00    +0.000 C 
BRANCH  57  58
ATOM     58  C   HIS A   5     -12.555   8.827  17.986  0.00  0.00    +0.000 C 
ATOM     59  O   HIS A   5     -11.841   8.461  18.876  0.00  0.00    +0.000 OA
ENDBRANCH  57  58
BRANCH  57  60
ATOM     60  CB  HIS A   5     -14.755   7.681  18.058  0.00  0.00    +0.000 C 
BRANCH  60  61
ATOM     61  CG  HIS A   5     -15.657   6.547  17.635  0.00  0.00    +0.000 A 
ATOM     62  ND1 HIS A   5     -15.341   5.236  17.928  0.00  0.00    +0.000 NA
ATOM     63  CE1 HIS A   5     -16.322   4.446  17.500  0.00  0.00    +0.000 A 
ATOM     64  NE2 HIS A   5     -17.245   5.194  16.916  0.00  0.00    +0.000 NA
ATOM     65  CD2 HIS A   5     -16.871   6.518  17.029  0.00  0.00    +0.000 A 
ENDBRANCH  60  61
ENDBRANCH  57  60
ENDBRANCH  54  57
ENDBRANCH  52  53
BRANCH  52  66
ATOM     66  C   UNK A   4     -10.735   4.830  14.981  0.00  0.00    +0.000 C 
ATOM     67  C   UNK A   4      -9.822   5.814  15.679  0.00  0.00    +0.000 C 
ATOM     68  C   UNK A   4     -10.024   3.466  14.731  0.00  0.00    +0.000 C 
ENDBRANCH  52  66
ENDBRANCH  50  52
ENDBRANCH  47  48
BRANCH  47  69
ATOM     69  CB  LEU A   3     -15.666   1.474  15.383  0.00  0.00    +0.000 C 
BRANCH  69  70
ATOM     70  CG  LEU A   3     -16.356   0.431  14.493  0.00  0.00    +0.000 C 
ATOM     71  CD2 LEU A   3     -17.308  -0.420  15.248  0.00  0.00    +0.000 C 
ATOM     72  CD1 LEU A   3     -17.107   1.120  13.362  0.00  0.00    +0.000 C 
ENDBRANCH  69  70
ENDBRANCH  47  69
ENDBRANCH  44  47
ENDBRANCH  31  43
ENDBRANCH  30  31
ENDBRANCH  29  30
ENDBRANCH  14  25
BRANCH   1  74
ATOM     73  C   LEU A   3     -11.758   0.634  10.222  0.00  0.00    +0.000 C 
ATOM     74  N   UNK A   4     -11.162  -0.327  10.918  0.00  0.00    +0.000 N 
ATOM     75  H   UNK A   4     -11.317  -0.372  11.945  0.00  0.00    +0.000 HD
ATOM     76  O   LEU A   3     -11.548   0.839   9.039  0.00  0.00    +0.000 OA
BRANCH  73  77
ATOM     77  CA  LEU A   3     -12.708   1.500  11.034  0.00  0.00    +0.000 C 
BRANCH  77  80
ATOM     78  C   UNK A   2     -12.705   3.921  11.133  0.00  0.00    +0.000 C 
ATOM     79  O   UNK A   2     -12.746   3.955  12.356  0.00  0.00    +0.000 OA
ATOM     80  N   LEU A   3     -12.870   2.811  10.407  0.00  0.00    +0.000 N 
ATOM     81  H   LEU A   3     -13.113   2.880   9.398  0.00  0.00    +0.000 HD
BRANCH  78  82
ATOM     82  C   UNK A   2     -12.495   5.184  10.350  0.00  0.00    +0.000 C 
BRANCH  82  84
ATOM     83  C   LEU A   1     -12.900   7.544  10.678  0.00  0.00    +0.000 C 
ATOM     84  N   UNK A   2     -12.783   6.324  11.205  0.00  0.00    +0.000 N 
ATOM     85  H   UNK A   2     -12.898   6.188  12.230  0.00  0.00    +0.000 HD
ATOM     86  O   LEU A   1     -12.833   7.739   9.464  0.00  0.00    +0.000 OA
BRANCH  83  87
ATOM     87  CA  LEU A   1     -13.154   8.690  11.649  0.00  0.00    +0.000 C 
BRANCH  87  88
ATOM     88  N   LEU A   1     -14.049   8.324  12.745  0.00  0.00    +0.000 NA
ATOM     89  H   LEU A   1     -13.700   7.687  13.489  0.00  0.00    +0.000 HD
ENDBRANCH  87  88
BRANCH  87  90
ATOM     90  CB  LEU A   1     -11.813   9.289  12.177  0.00  0.00    +0.000 C 
ATOM     91  CG2 LEU A   1     -11.161   8.408  13.227  0.00  0.00    +0.000 C 
BRANCH  90  92
ATOM     92  CG1 LEU A   1     -10.859   9.564  11.012  0.00  0.00    +0.000 C 
ATOM     93  CD1 LEU A   1      -9.625  10.353  11.419  0.00  0.00    +0.000 C 
ENDBRANCH  90  92
ENDBRANCH  87  90
ENDBRANCH  83  87
ENDBRANCH  82  84
BRANCH  82  94
ATOM     94  C   UNK A   2     -11.034   5.216   9.833  0.00  0.00    +0.000 C 
BRANCH  94  95
ATOM     95  C   UNK A   2      -9.977   5.224  10.969  0.00  0.00    +0.000 C 
BRANCH  95  96
ATOM     96  C   UNK A   2      -9.205   3.945  11.027  0.00  0.00    +0.000 C 
ATOM     97  O   UNK A   2      -9.787   2.854  11.115  0.00  0.00    +0.000 OA
ATOM     98  N   UNK A   2      -7.895   4.042  10.887  0.00  0.00    +0.000 N 
ATOM     99  H   UNK A   2      -7.311   3.182  10.847  0.00  0.00    +0.000 HD
ATOM    100  H   UNK A   2      -7.447   4.978  10.817  0.00  0.00    +0.000 HD
ENDBRANCH  95  96
ENDBRANCH  94  95
ENDBRANCH  82  94
ENDBRANCH  78  82
ENDBRANCH  77  80
BRANCH  77 101
ATOM    101  CB  LEU A   3     -14.038   0.796  11.310  0.00  0.00    +0.000 C 
BRANCH 101 102
ATOM    102  CG  LEU A   3     -14.786   0.321  10.077  0.00  0.00    +0.000 A 
ATOM    103  CD2 LEU A   3     -15.917   0.997   9.620  0.00  0.00    +0.000 A 
ATOM    104  CE2 LEU A   3     -16.613   0.523   8.505  0.00  0.00    +0.000 A 
ATOM    105  CZ  LEU A   3     -16.188  -0.601   7.843  0.00  0.00    +0.000 A 
ATOM    106  CE1 LEU A   3     -15.085  -1.288   8.280  0.00  0.00    +0.000 A 
ATOM    107  CD1 LEU A   3     -14.401  -0.841   9.391  0.00  0.00    +0.000 A 
ENDBRANCH 101 102
ENDBRANCH  77 101
ENDBRANCH  73  77
ENDBRANCH   1  74
BRANCH   9 108
ATOM    108  C   UNK A   6      -7.237  -8.497  12.572  0.00  0.00    +0.000 C 
ATOM    109  O   UNK A   6      -8.263  -8.878  13.127  0.00  0.00    +0.000 OA
ENDBRANCH   9 108
BRANCH   5 110
ATOM    110  CB  HIS A   5     -10.329  -5.983  10.538  0.00  0.00    +0.000 C 
BRANCH 110 111
ATOM    111  CG  HIS A   5     -11.785  -5.721  10.211  0.00  0.00    +0.000 A 
ATOM    112  CD2 HIS A   5     -12.793  -6.374  10.909  0.00  0.00    +0.000 A 
ATOM    113  CE2 HIS A   5     -14.105  -6.175  10.614  0.00  0.00    +0.000 A 
ATOM    114  CZ  HIS A   5     -14.461  -5.332   9.545  0.00  0.00    +0.000 A 
ATOM    115  CE1 HIS A   5     -13.484  -4.710   8.827  0.00  0.00    +0.000 A 
ATOM    116  CD1 HIS A   5     -12.142  -4.912   9.146  0.00  0.00    +0.000 A 
ENDBRANCH 110 111
ENDBRANCH   5 110
TORSDOF 37
REMARK  Name = ../refined-set-2016/3p5l/3p5l_pocket.pdb
REMARK  141 active torsions:
REMARK  status: ('A' for Active; 'I' for Inactive)
REMARK    1  A    between atoms: _1  and  _3
REMARK    2  A    between atoms: _3  and  _4
REMARK    3  A    between atoms: _3  and  _6
REMARK    4  A    between atoms: _6  and  _7
REMARK    5  A    between atoms: _17  and  _19
REMARK    6  A    between atoms: _19  and  _20
REMARK    7  A    between atoms: _19  and  _22
REMARK    8  A    between atoms: _22  and  _23
REMARK    9  A    between atoms: _28  and  _29
REMARK   10  A    between atoms: _31  and  _33
REMARK   11  A    between atoms: _33  and  _34
REMARK   12  A    between atoms: _33  and  _36
REMARK   13  A    between atoms: _36  and  _37
REMARK   14  A    between atoms: _40  and  _42
REMARK   15  A    between atoms: _42  and  _43
REMARK   16  A    between atoms: _42  and  _45
REMARK   17  A    between atoms: _45  and  _46
REMARK   18  A    between atoms: _51  and  _53
REMARK   19  A    between atoms: _53  and  _54
REMARK   20  A    between atoms: _53  and  _56
REMARK   21  A    between atoms: _56  and  _57
REMARK   22  A    between atoms: _62  and  _64
REMARK   23  A    between atoms: _64  and  _65
REMARK   24  A    between atoms: _68  and  _70
REMARK   25  A    between atoms: _70  and  _71
REMARK   26  A    between atoms: _70  and  _73
REMARK   27  A    between atoms: _73  and  _74
REMARK   28  A    between atoms: _80  and  _82
REMARK   29  A    between atoms: _82  and  _83
REMARK   30  A    between atoms: _82  and  _85
REMARK   31  A    between atoms: _85  and  _86
REMARK   32  A    between atoms: _91  and  _93
REMARK   33  A    between atoms: _93  and  _94
REMARK   34  A    between atoms: _93  and  _96
REMARK   35  A    between atoms: _96  and  _97
REMARK   36  A    between atoms: _100  and  _102
REMARK   37  A    between atoms: _102  and  _103
REMARK   38  A    between atoms: _102  and  _105
REMARK   39  A    between atoms: _105  and  _106
REMARK   40  A    between atoms: _106  and  _107
REMARK   41  A    between atoms: _112  and  _114
REMARK   42  A    between atoms: _114  and  _115
REMARK   43  A    between atoms: _114  and  _117
REMARK   44  A    between atoms: _117  and  _118
REMARK   45  A    between atoms: _124  and  _126
REMARK   46  A    between atoms: _137  and  _140
REMARK   47  A    between atoms: _140  and  _141
REMARK   48  A    between atoms: _149  and  _150
REMARK   49  A    between atoms: _158  and  _160
REMARK   50  A    between atoms: _160  and  _161
REMARK   51  A    between atoms: _160  and  _163
REMARK   52  A    between atoms: _163  and  _164
REMARK   53  A    between atoms: _164  and  _165
REMARK   54  A    between atoms: _168  and  _170
REMARK   55  A    between atoms: _170  and  _171
REMARK   56  A    between atoms: _170  and  _173
REMARK   57  A    between atoms: _173  and  _174
REMARK   58  A    between atoms: _177  and  _179
REMARK   59  A    between atoms: _179  and  _180
REMARK   60  A    between atoms: _179  and  _182
REMARK   61  A    between atoms: _182  and  _183
REMARK   62  A    between atoms: _184  and  ZN_399
REMARK   63  A    between atoms: _188  and  _190
REMARK   64  A    between atoms: _190  and  _191
REMARK   65  A    between atoms: _190  and  _193
REMARK   66  A    between atoms: _193  and  _194
REMARK   67  A    between atoms: _197  and  _199
REMARK   68  A    between atoms: _199  and  _200
REMARK   69  A    between atoms: _199  and  _202
REMARK   70  A    between atoms: _205  and  _207
REMARK   71  A    between atoms: _207  and  _208
REMARK   72  A    between atoms: _207  and  _210
REMARK   73  A    between atoms: _210  and  _211
REMARK   74  A    between atoms: _216  and  _218
REMARK   75  A    between atoms: _218  and  _219
REMARK   76  A    between atoms: _218  and  _221
REMARK   77  A    between atoms: _221  and  _222
REMARK   78  A    between atoms: _228  and  _230
REMARK   79  A    between atoms: _230  and  _231
REMARK   80  A    between atoms: _233  and  _235
REMARK   81  A    between atoms: _235  and  _236
REMARK   82  A    between atoms: _235  and  _238
REMARK   83  A    between atoms: _241  and  _243
REMARK   84  A    between atoms: _243  and  _244
REMARK   85  A    between atoms: _243  and  _246
REMARK   86  A    between atoms: _246  and  _247
REMARK   87  A    between atoms: _250  and  _252
REMARK   88  A    between atoms: _252  and  _253
REMARK   89  A    between atoms: _256  and  _258
REMARK   90  A    between atoms: _258  and  _259
REMARK   91  A    between atoms: _258  and  _261
REMARK   92  A    between atoms: _264  and  _266
REMARK   93  A    between atoms: _266  and  _267
REMARK   94  A    between atoms: _266  and  _269
REMARK   95  A    between atoms: _269  and  _270
REMARK   96  A    between atoms: _273  and  _275
REMARK   97  A    between atoms: _275  and  _276
REMARK   98  A    between atoms: _275  and  _278
REMARK   99  A    between atoms: _278  and  _279
REMARK  100  A    between atoms: _281  and  _283
REMARK  101  A    between atoms: _283  and  _284
REMARK  102  A    between atoms: _283  and  _286
REMARK  103  A    between atoms: _286  and  _287
REMARK  104  A    between atoms: _290  and  _292
REMARK  105  A    between atoms: _292  and  _293
REMARK  106  A    between atoms: _292  and  _295
REMARK  107  A    between atoms: _295  and  _296
REMARK  108  A    between atoms: _299  and  _301
REMARK  109  A    between atoms: _301  and  _302
REMARK  110  A    between atoms: _301  and  _304
REMARK  111  A    between atoms: _304  and  _305
REMARK  112  A    between atoms: _309  and  _310
REMARK  113  A    between atoms: _316  and  _317
REMARK  114  A    between atoms: _322  and  _324
REMARK  115  A    between atoms: _324  and  _325
REMARK  116  A    between atoms: _324  and  _327
REMARK  117  A    between atoms: _327  and  _328
REMARK  118  A    between atoms: _331  and  _333
REMARK  119  A    between atoms: _333  and  _334
REMARK  120  A    between atoms: _333  and  _336
REMARK  121  A    between atoms: _336  and  _337
REMARK  122  A    between atoms: _340  and  _342
REMARK  123  A    between atoms: _342  and  _343
REMARK  124  A    between atoms: _342  and  _345
REMARK  125  A    between atoms: _347  and  _349
REMARK  126  A    between atoms: _349  and  _350
REMARK  127  A    between atoms: _349  and  _352
REMARK  128  A    between atoms: _355  and  _357
REMARK  129  A    between atoms: _357  and  _358
REMARK  130  A    between atoms: _357  and  _360
REMARK  131  A    between atoms: _360  and  _361
REMARK  132  A    between atoms: _371  and  _373
REMARK  133  A    between atoms: _373  and  _374
REMARK  134  A    between atoms: _373  and  _376
REMARK  135  A    between atoms: _376  and  _377
REMARK  136  A    between atoms: _382  and  _384
REMARK  137  A    between atoms: _384  and  _385
REMARK  138  A    between atoms: _384  and  _387
REMARK  139  A    between atoms: _387  and  _388
REMARK  140  A    between atoms: _388  and  _389
REMARK  141  A    between atoms: _389  and  _390
REMARK                            x       y       z     vdW  Elec       q    Type
REMARK                         _______ _______ _______ _____ _____    ______ ____
ROOT
ATOM      1  CA  GLU A   1      -5.562  -8.254  19.671  0.00  0.00    +0.134 C 
ENDROOT
BRANCH   1   2
ATOM      2  N   GLU A   1      -6.580  -8.921  18.850  0.00  0.00    -0.239 NA
ATOM      3  H   GLU A   1      -7.436  -8.385  18.601  0.00  0.00    +0.142 HD
ENDBRANCH   1   2
BRANCH   1   4
ATOM      4  C   GLU A   1      -5.913  -8.406  21.153  0.00  0.00    +0.224 C 
ATOM      5  O   GLU A   1      -5.192  -9.035  21.932  0.00  0.00    -0.287 OA
ENDBRANCH   1   4
BRANCH   1   6
ATOM      6  CB  GLU A   1      -5.500  -6.790  19.256  0.00  0.00    +0.037 C 
BRANCH   6   7
ATOM      7  CG  GLU A   1      -4.992  -6.690  17.831  0.00  0.00    +0.116 C 
BRANCH   7   8
ATOM      8  CD  GLU A   1      -4.402  -5.382  17.490  0.00  0.00    +0.365 C 
ATOM      9  OE2 GLU A   1      -5.090  -4.347  17.648  0.00  0.00    -0.246 OA
ATOM     10  OE1 GLU A   1      -3.285  -5.384  16.975  0.00  0.00    -0.246 OA
ENDBRANCH   7   8
ENDBRANCH   6   7
ENDBRANCH   1   6
TORSDOF 5
REMARK  Name = ../refined-set-2016/3p5l/3p5l_pocket.pdb
REMARK  141 active torsions:
REMARK  status: ('A' for Active; 'I' for Inactive)
REMARK    1  A    between atoms: _1  and  _3
REMARK    2  A    between atoms: _3  and  _4
REMARK    3  A    between atoms: _3  and  _6
REMARK    4  A    between atoms: _6  and  _7
REMARK    5  A    between atoms: _17  and  _19
REMARK    6  A    between atoms: _19  and  _20
REMARK    7  A    between atoms: _19  and  _22
REMARK    8  A    between atoms: _22  and  _23
REMARK    9  A    between atoms: _28  and  _29
REMARK   10  A    between atoms: _31  and  _33
REMARK   11  A    between atoms: _33  and  _34
REMARK   12  A    between atoms: _33  and  _36
REMARK   13  A    between atoms: _36  and  _37
REMARK   14  A    between atoms: _40  and  _42
REMARK   15  A    between atoms: _42  and  _43
REMARK   16  A    between atoms: _42  and  _45
REMARK   17  A    between atoms: _45  and  _46
REMARK   18  A    between atoms: _51  and  _53
REMARK   19  A    between atoms: _53  and  _54
REMARK   20  A    between atoms: _53  and  _56
REMARK   21  A    between atoms: _56  and  _57
REMARK   22  A    between atoms: _62  and  _64
REMARK   23  A    between atoms: _64  and  _65
REMARK   24  A    between atoms: _68  and  _70
REMARK   25  A    between atoms: _70  and  _71
REMARK   26  A    between atoms: _70  and  _73
REMARK   27  A    between atoms: _73  and  _74
REMARK   28  A    between atoms: _80  and  _82
REMARK   29  A    between atoms: _82  and  _83
REMARK   30  A    between atoms: _82  and  _85
REMARK   31  A    between atoms: _85  and  _86
REMARK   32  A    between atoms: _91  and  _93
REMARK   33  A    between atoms: _93  and  _94
REMARK   34  A    between atoms: _93  and  _96
REMARK   35  A    between atoms: _96  and  _97
REMARK   36  A    between atoms: _100  and  _102
REMARK   37  A    between atoms: _102  and  _103
REMARK   38  A    between atoms: _102  and  _105
REMARK   39  A    between atoms: _105  and  _106
REMARK   40  A    between atoms: _106  and  _107
REMARK   41  A    between atoms: _112  and  _114
REMARK   42  A    between atoms: _114  and  _115
REMARK   43  A    between atoms: _114  and  _117
REMARK   44  A    between atoms: _117  and  _118
REMARK   45  A    between atoms: _124  and  _126
REMARK   46  A    between atoms: _137  and  _140
REMARK   47  A    between atoms: _140  and  _141
REMARK   48  A    between atoms: _149  and  _150
REMARK   49  A    between atoms: _158  and  _160
REMARK   50  A    between atoms: _160  and  _161
REMARK   51  A    between atoms: _160  and  _163
REMARK   52  A    between atoms: _163  and  _164
REMARK   53  A    between atoms: _164  and  _165
REMARK   54  A    between atoms: _168  and  _170
REMARK   55  A    between atoms: _170  and  _171
REMARK   56  A    between atoms: _170  and  _173
REMARK   57  A    between atoms: _173  and  _174
REMARK   58  A    between atoms: _177  and  _179
REMARK   59  A    between atoms: _179  and  _180
REMARK   60  A    between atoms: _179  and  _182
REMARK   61  A    between atoms: _182  and  _183
REMARK   62  A    between atoms: _184  and  ZN_399
REMARK   63  A    between atoms: _188  and  _190
REMARK   64  A    between atoms: _190  and  _191
REMARK   65  A    between atoms: _190  and  _193
REMARK   66  A    between atoms: _193  and  _194
REMARK   67  A    between atoms: _197  and  _199
REMARK   68  A    between atoms: _199  and  _200
REMARK   69  A    between atoms: _199  and  _202
REMARK   70  A    between atoms: _205  and  _207
REMARK   71  A    between atoms: _207  and  _208
REMARK   72  A    between atoms: _207  and  _210
REMARK   73  A    between atoms: _210  and  _211
REMARK   74  A    between atoms: _216  and  _218
REMARK   75  A    between atoms: _218  and  _219
REMARK   76  A    between atoms: _218  and  _221
REMARK   77  A    between atoms: _221  and  _222
REMARK   78  A    between atoms: _228  and  _230
REMARK   79  A    between atoms: _230  and  _231
REMARK   80  A    between atoms: _233  and  _235
REMARK   81  A    between atoms: _235  and  _236
REMARK   82  A    between atoms: _235  and  _238
REMARK   83  A    between atoms: _241  and  _243
REMARK   84  A    between atoms: _243  and  _244
REMARK   85  A    between atoms: _243  and  _246
REMARK   86  A    between atoms: _246  and  _247
REMARK   87  A    between atoms: _250  and  _252
REMARK   88  A    between atoms: _252  and  _253
REMARK   89  A    between atoms: _256  and  _258
REMARK   90  A    between atoms: _258  and  _259
REMARK   91  A    between atoms: _258  and  _261
REMARK   92  A    between atoms: _264  and  _266
REMARK   93  A    between atoms: _266  and  _267
REMARK   94  A    between atoms: _266  and  _269
REMARK   95  A    between atoms: _269  and  _270
REMARK   96  A    between atoms: _273  and  _275
REMARK   97  A    between atoms: _275  and  _276
REMARK   98  A    between atoms: _275  and  _278
REMARK   99  A    between atoms: _278  and  _279
REMARK  100  A    between atoms: _281  and  _283
REMARK  101  A    between atoms: _283  and  _284
REMARK  102  A    between atoms: _283  and  _286
REMARK  103  A    between atoms: _286  and  _287
REMARK  104  A    between atoms: _290  and  _292
REMARK  105  A    between atoms: _292  and  _293
REMARK  106  A    between atoms: _292  and  _295
REMARK  107  A    between atoms: _295  and  _296
REMARK  108  A    between atoms: _299  and  _301
REMARK  109  A    between atoms: _301  and  _302
REMARK  110  A    between atoms: _301  and  _304
REMARK  111  A    between atoms: _304  and  _305
REMARK  112  A    between atoms: _309  and  _310
REMARK  113  A    between atoms: _316  and  _317
REMARK  114  A    between atoms: _322  and  _324
REMARK  115  A    between atoms: _324  and  _325
REMARK  116  A    between atoms: _324  and  _327
REMARK  117  A    between atoms: _327  and  _328
REMARK  118  A    between atoms: _331  and  _333
REMARK  119  A    between atoms: _333  and  _334
REMARK  120  A    between atoms: _333  and  _336
REMARK  121  A    between atoms: _336  and  _337
REMARK  122  A    between atoms: _340  and  _342
REMARK  123  A    between atoms: _342  and  _343
REMARK  124  A    between atoms: _342  and  _345
REMARK  125  A    between atoms: _347  and  _349
REMARK  126  A    between atoms: _349  and  _350
REMARK  127  A    between atoms: _349  and  _352
REMARK  128  A    between atoms: _355  and  _357
REMARK  129  A    between atoms: _357  and  _358
REMARK  130  A    between atoms: _357  and  _360
REMARK  131  A    between atoms: _360  and  _361
REMARK  132  A    between atoms: _371  and  _373
REMARK  133  A    between atoms: _373  and  _374
REMARK  134  A    between atoms: _373  and  _376
REMARK  135  A    between atoms: _376  and  _377
REMARK  136  A    between atoms: _382  and  _384
REMARK  137  A    between atoms: _384  and  _385
REMARK  138  A    between atoms: _384  and  _387
REMARK  139  A    between atoms: _387  and  _388
REMARK  140  A    between atoms: _388  and  _389
REMARK  141  A    between atoms: _389  and  _390
REMARK                            x       y       z     vdW  Elec       q    Type
REMARK                         _______ _______ _______ _____ _____    ______ ____
ROOT
ATOM      1  CA  PHE A   1      -7.661  13.748  15.141  0.00  0.00    +0.149 C 
ENDROOT
BRANCH   1   2
ATOM      2  C   PHE A   1      -6.205  13.845  15.545  0.00  0.00    +0.239 C 
ATOM      3  O   PHE A   1      -5.780  13.219  16.518  0.00  0.00    -0.274 OA
ATOM      4  N   GLY A   2      -5.404  14.614  14.802  0.00  0.00    -0.297 N 
ATOM      5  H   GLY A   2      -5.786  15.110  13.972  0.00  0.00    +0.150 HD
BRANCH   4   6
ATOM      6  CA  GLY A   2      -4.007  14.760  15.148  0.00  0.00    +0.163 C 
BRANCH   6   7
ATOM      7  C   GLY A   2      -3.749  15.351  16.533  0.00  0.00    +0.229 C 
ATOM      8  O   GLY A   2      -2.799  14.985  17.201  0.00  0.00    -0.286 OA
ENDBRANCH   6   7
ENDBRANCH   4   6
ENDBRANCH   1   2
BRANCH   1   9
ATOM      9  N   PHE A   1      -8.181  15.046  14.737  0.00  0.00    -0.238 NA
ATOM     10  H   PHE A   1      -8.510  15.173  13.759  0.00  0.00    +0.142 HD
ENDBRANCH   1   9
BRANCH   1  11
ATOM     11  CB  PHE A   1      -7.822  12.774  13.977  0.00  0.00    +0.053 C 
BRANCH  11  12
ATOM     12  CG  PHE A   1      -7.286  11.406  14.243  0.00  0.00    -0.020 A 
ATOM     13  CD2 PHE A   1      -8.068  10.457  14.887  0.00  0.00    -0.004 A 
ATOM     14  CE2 PHE A   1      -7.581   9.194  15.156  0.00  0.00    -0.000 A 
ATOM     15  CZ  PHE A   1      -6.310   8.852  14.766  0.00  0.00    -0.000 A 
ATOM     16  CE1 PHE A   1      -5.506   9.806  14.101  0.00  0.00    -0.000 A 
ATOM     17  CD1 PHE A   1      -6.003  11.066  13.859  0.00  0.00    -0.004 A 
ENDBRANCH  11  12
ENDBRANCH   1  11
TORSDOF 6
REMARK  Name = ../refined-set-2016/3p5l/3p5l_pocket.pdb
REMARK  141 active torsions:
REMARK  status: ('A' for Active; 'I' for Inactive)
REMARK    1  A    between atoms: _1  and  _3
REMARK    2  A    between atoms: _3  and  _4
REMARK    3  A    between atoms: _3  and  _6
REMARK    4  A    between atoms: _6  and  _7
REMARK    5  A    between atoms: _17  and  _19
REMARK    6  A    between atoms: _19  and  _20
REMARK    7  A    between atoms: _19  and  _22
REMARK    8  A    between atoms: _22  and  _23
REMARK    9  A    between atoms: _28  and  _29
REMARK   10  A    between atoms: _31  and  _33
REMARK   11  A    between atoms: _33  and  _34
REMARK   12  A    between atoms: _33  and  _36
REMARK   13  A    between atoms: _36  and  _37
REMARK   14  A    between atoms: _40  and  _42
REMARK   15  A    between atoms: _42  and  _43
REMARK   16  A    between atoms: _42  and  _45
REMARK   17  A    between atoms: _45  and  _46
REMARK   18  A    between atoms: _51  and  _53
REMARK   19  A    between atoms: _53  and  _54
REMARK   20  A    between atoms: _53  and  _56
REMARK   21  A    between atoms: _56  and  _57
REMARK   22  A    between atoms: _62  and  _64
REMARK   23  A    between atoms: _64  and  _65
REMARK   24  A    between atoms: _68  and  _70
REMARK   25  A    between atoms: _70  and  _71
REMARK   26  A    between atoms: _70  and  _73
REMARK   27  A    between atoms: _73  and  _74
REMARK   28  A    between atoms: _80  and  _82
REMARK   29  A    between atoms: _82  and  _83
REMARK   30  A    between atoms: _82  and  _85
REMARK   31  A    between atoms: _85  and  _86
REMARK   32  A    between atoms: _91  and  _93
REMARK   33  A    between atoms: _93  and  _94
REMARK   34  A    between atoms: _93  and  _96
REMARK   35  A    between atoms: _96  and  _97
REMARK   36  A    between atoms: _100  and  _102
REMARK   37  A    between atoms: _102  and  _103
REMARK   38  A    between atoms: _102  and  _105
REMARK   39  A    between atoms: _105  and  _106
REMARK   40  A    between atoms: _106  and  _107
REMARK   41  A    between atoms: _112  and  _114
REMARK   42  A    between atoms: _114  and  _115
REMARK   43  A    between atoms: _114  and  _117
REMARK   44  A    between atoms: _117  and  _118
REMARK   45  A    between atoms: _124  and  _126
REMARK   46  A    between atoms: _137  and  _140
REMARK   47  A    between atoms: _140  and  _141
REMARK   48  A    between atoms: _149  and  _150
REMARK   49  A    between atoms: _158  and  _160
REMARK   50  A    between atoms: _160  and  _161
REMARK   51  A    between atoms: _160  and  _163
REMARK   52  A    between atoms: _163  and  _164
REMARK   53  A    between atoms: _164  and  _165
REMARK   54  A    between atoms: _168  and  _170
REMARK   55  A    between atoms: _170  and  _171
REMARK   56  A    between atoms: _170  and  _173
REMARK   57  A    between atoms: _173  and  _174
REMARK   58  A    between atoms: _177  and  _179
REMARK   59  A    between atoms: _179  and  _180
REMARK   60  A    between atoms: _179  and  _182
REMARK   61  A    between atoms: _182  and  _183
REMARK   62  A    between atoms: _184  and  ZN_399
REMARK   63  A    between atoms: _188  and  _190
REMARK   64  A    between atoms: _190  and  _191
REMARK   65  A    between atoms: _190  and  _193
REMARK   66  A    between atoms: _193  and  _194
REMARK   67  A    between atoms: _197  and  _199
REMARK   68  A    between atoms: _199  and  _200
REMARK   69  A    between atoms: _199  and  _202
REMARK   70  A    between atoms: _205  and  _207
REMARK   71  A    between atoms: _207  and  _208
REMARK   72  A    between atoms: _207  and  _210
REMARK   73  A    between atoms: _210  and  _211
REMARK   74  A    between atoms: _216  and  _218
REMARK   75  A    between atoms: _218  and  _219
REMARK   76  A    between atoms: _218  and  _221
REMARK   77  A    between atoms: _221  and  _222
REMARK   78  A    between atoms: _228  and  _230
REMARK   79  A    between atoms: _230  and  _231
REMARK   80  A    between atoms: _233  and  _235
REMARK   81  A    between atoms: _235  and  _236
REMARK   82  A    between atoms: _235  and  _238
REMARK   83  A    between atoms: _241  and  _243
REMARK   84  A    between atoms: _243  and  _244
REMARK   85  A    between atoms: _243  and  _246
REMARK   86  A    between atoms: _246  and  _247
REMARK   87  A    between atoms: _250  and  _252
REMARK   88  A    between atoms: _252  and  _253
REMARK   89  A    between atoms: _256  and  _258
REMARK   90  A    between atoms: _258  and  _259
REMARK   91  A    between atoms: _258  and  _261
REMARK   92  A    between atoms: _264  and  _266
REMARK   93  A    between atoms: _266  and  _267
REMARK   94  A    between atoms: _266  and  _269
REMARK   95  A    between atoms: _269  and  _270
REMARK   96  A    between atoms: _273  and  _275
REMARK   97  A    between atoms: _275  and  _276
REMARK   98  A    between atoms: _275  and  _278
REMARK   99  A    between atoms: _278  and  _279
REMARK  100  A    between atoms: _281  and  _283
REMARK  101  A    between atoms: _283  and  _284
REMARK  102  A    between atoms: _283  and  _286
REMARK  103  A    between atoms: _286  and  _287
REMARK  104  A    between atoms: _290  and  _292
REMARK  105  A    between atoms: _292  and  _293
REMARK  106  A    between atoms: _292  and  _295
REMARK  107  A    between atoms: _295  and  _296
REMARK  108  A    between atoms: _299  and  _301
REMARK  109  A    between atoms: _301  and  _302
REMARK  110  A    between atoms: _301  and  _304
REMARK  111  A    between atoms: _304  and  _305
REMARK  112  A    between atoms: _309  and  _310
REMARK  113  A    between atoms: _316  and  _317
REMARK  114  A    between atoms: _322  and  _324
REMARK  115  A    between atoms: _324  and  _325
REMARK  116  A    between atoms: _324  and  _327
REMARK  117  A    between atoms: _327  and  _328
REMARK  118  A    between atoms: _331  and  _333
REMARK  119  A    between atoms: _333  and  _334
REMARK  120  A    between atoms: _333  and  _336
REMARK  121  A    between atoms: _336  and  _337
REMARK  122  A    between atoms: _340  and  _342
REMARK  123  A    between atoms: _342  and  _343
REMARK  124  A    between atoms: _342  and  _345
REMARK  125  A    between atoms: _347  and  _349
REMARK  126  A    between atoms: _349  and  _350
REMARK  127  A    between atoms: _349  and  _352
REMARK  128  A    between atoms: _355  and  _357
REMARK  129  A    between atoms: _357  and  _358
REMARK  130  A    between atoms: _357  and  _360
REMARK  131  A    between atoms: _360  and  _361
REMARK  132  A    between atoms: _371  and  _373
REMARK  133  A    between atoms: _373  and  _374
REMARK  134  A    between atoms: _373  and  _376
REMARK  135  A    between atoms: _376  and  _377
REMARK  136  A    between atoms: _382  and  _384
REMARK  137  A    between atoms: _384  and  _385
REMARK  138  A    between atoms: _384  and  _387
REMARK  139  A    between atoms: _387  and  _388
REMARK  140  A    between atoms: _388  and  _389
REMARK  141  A    between atoms: _389  and  _390
REMARK                            x       y       z     vdW  Elec       q    Type
REMARK                         _______ _______ _______ _____ _____    ______ ____
ROOT
ATOM      1  CA  VAL A   1      -4.058  11.456  19.727  0.00  0.00    +0.133 C 
ENDROOT
BRANCH   1   2
ATOM      2  CB  VAL A   1      -3.427  10.746  18.496  0.00  0.00    +0.023 C 
ATOM      3  CG2 VAL A   1      -2.533  11.697  17.701  0.00  0.00    +0.002 C 
ATOM      4  CG1 VAL A   1      -4.493  10.166  17.637  0.00  0.00    +0.002 C 
ENDBRANCH   1   2
BRANCH   1   5
ATOM      5  N   VAL A   1      -4.935  12.586  19.372  0.00  0.00    -0.239 NA
ATOM      6  H   VAL A   1      -4.908  12.993  18.415  0.00  0.00    +0.142 HD
ENDBRANCH   1   5
BRANCH   1   7
ATOM      7  C   VAL A   1      -2.937  11.859  20.682  0.00  0.00    +0.224 C 
ATOM      8  O   VAL A   1      -2.232  10.984  21.219  0.00  0.00    -0.287 OA
ENDBRANCH   1   7
TORSDOF 3
REMARK  Name = ../refined-set-2016/3p5l/3p5l_pocket.pdb
REMARK  141 active torsions:
REMARK  status: ('A' for Active; 'I' for Inactive)
REMARK    1  A    between atoms: _1  and  _3
REMARK    2  A    between atoms: _3  and  _4
REMARK    3  A    between atoms: _3  and  _6
REMARK    4  A    between atoms: _6  and  _7
REMARK    5  A    between atoms: _17  and  _19
REMARK    6  A    between atoms: _19  and  _20
REMARK    7  A    between atoms: _19  and  _22
REMARK    8  A    between atoms: _22  and  _23
REMARK    9  A    between atoms: _28  and  _29
REMARK   10  A    between atoms: _31  and  _33
REMARK   11  A    between atoms: _33  and  _34
REMARK   12  A    between atoms: _33  and  _36
REMARK   13  A    between atoms: _36  and  _37
REMARK   14  A    between atoms: _40  and  _42
REMARK   15  A    between atoms: _42  and  _43
REMARK   16  A    between atoms: _42  and  _45
REMARK   17  A    between atoms: _45  and  _46
REMARK   18  A    between atoms: _51  and  _53
REMARK   19  A    between atoms: _53  and  _54
REMARK   20  A    between atoms: _53  and  _56
REMARK   21  A    between atoms: _56  and  _57
REMARK   22  A    between atoms: _62  and  _64
REMARK   23  A    between atoms: _64  and  _65
REMARK   24  A    between atoms: _68  and  _70
REMARK   25  A    between atoms: _70  and  _71
REMARK   26  A    between atoms: _70  and  _73
REMARK   27  A    between atoms: _73  and  _74
REMARK   28  A    between atoms: _80  and  _82
REMARK   29  A    between atoms: _82  and  _83
REMARK   30  A    between atoms: _82  and  _85
REMARK   31  A    between atoms: _85  and  _86
REMARK   32  A    between atoms: _91  and  _93
REMARK   33  A    between atoms: _93  and  _94
REMARK   34  A    between atoms: _93  and  _96
REMARK   35  A    between atoms: _96  and  _97
REMARK   36  A    between atoms: _100  and  _102
REMARK   37  A    between atoms: _102  and  _103
REMARK   38  A    between atoms: _102  and  _105
REMARK   39  A    between atoms: _105  and  _106
REMARK   40  A    between atoms: _106  and  _107
REMARK   41  A    between atoms: _112  and  _114
REMARK   42  A    between atoms: _114  and  _115
REMARK   43  A    between atoms: _114  and  _117
REMARK   44  A    between atoms: _117  and  _118
REMARK   45  A    between atoms: _124  and  _126
REMARK   46  A    between atoms: _137  and  _140
REMARK   47  A    between atoms: _140  and  _141
REMARK   48  A    between atoms: _149  and  _150
REMARK   49  A    between atoms: _158  and  _160
REMARK   50  A    between atoms: _160  and  _161
REMARK   51  A    between atoms: _160  and  _163
REMARK   52  A    between atoms: _163  and  _164
REMARK   53  A    between atoms: _164  and  _165
REMARK   54  A    between atoms: _168  and  _170
REMARK   55  A    between atoms: _170  and  _171
REMARK   56  A    between atoms: _170  and  _173
REMARK   57  A    between atoms: _173  and  _174
REMARK   58  A    between atoms: _177  and  _179
REMARK   59  A    between atoms: _179  and  _180
REMARK   60  A    between atoms: _179  and  _182
REMARK   61  A    between atoms: _182  and  _183
REMARK   62  A    between atoms: _184  and  ZN_399
REMARK   63  A    between atoms: _188  and  _190
REMARK   64  A    between atoms: _190  and  _191
REMARK   65  A    between atoms: _190  and  _193
REMARK   66  A    between atoms: _193  and  _194
REMARK   67  A    between atoms: _197  and  _199
REMARK   68  A    between atoms: _199  and  _200
REMARK   69  A    between atoms: _199  and  _202
REMARK   70  A    between atoms: _205  and  _207
REMARK   71  A    between atoms: _207  and  _208
REMARK   72  A    between atoms: _207  and  _210
REMARK   73  A    between atoms: _210  and  _211
REMARK   74  A    between atoms: _216  and  _218
REMARK   75  A    between atoms: _218  and  _219
REMARK   76  A    between atoms: _218  and  _221
REMARK   77  A    between atoms: _221  and  _222
REMARK   78  A    between atoms: _228  and  _230
REMARK   79  A    between atoms: _230  and  _231
REMARK   80  A    between atoms: _233  and  _235
REMARK   81  A    between atoms: _235  and  _236
REMARK   82  A    between atoms: _235  and  _238
REMARK   83  A    between atoms: _241  and  _243
REMARK   84  A    between atoms: _243  and  _244
REMARK   85  A    between atoms: _243  and  _246
REMARK   86  A    between atoms: _246  and  _247
REMARK   87  A    between atoms: _250  and  _252
REMARK   88  A    between atoms: _252  and  _253
REMARK   89  A    between atoms: _256  and  _258
REMARK   90  A    between atoms: _258  and  _259
REMARK   91  A    between atoms: _258  and  _261
REMARK   92  A    between atoms: _264  and  _266
REMARK   93  A    between atoms: _266  and  _267
REMARK   94  A    between atoms: _266  and  _269
REMARK   95  A    between atoms: _269  and  _270
REMARK   96  A    between atoms: _273  and  _275
REMARK   97  A    between atoms: _275  and  _276
REMARK   98  A    between atoms: _275  and  _278
REMARK   99  A    between atoms: _278  and  _279
REMARK  100  A    between atoms: _281  and  _283
REMARK  101  A    between atoms: _283  and  _284
REMARK  102  A    between atoms: _283  and  _286
REMARK  103  A    between atoms: _286  and  _287
REMARK  104  A    between atoms: _290  and  _292
REMARK  105  A    between atoms: _292  and  _293
REMARK  106  A    between atoms: _292  and  _295
REMARK  107  A    between atoms: _295  and  _296
REMARK  108  A    between atoms: _299  and  _301
REMARK  109  A    between atoms: _301  and  _302
REMARK  110  A    between atoms: _301  and  _304
REMARK  111  A    between atoms: _304  and  _305
REMARK  112  A    between atoms: _309  and  _310
REMARK  113  A    between atoms: _316  and  _317
REMARK  114  A    between atoms: _322  and  _324
REMARK  115  A    between atoms: _324  and  _325
REMARK  116  A    between atoms: _324  and  _327
REMARK  117  A    between atoms: _327  and  _328
REMARK  118  A    between atoms: _331  and  _333
REMARK  119  A    between atoms: _333  and  _334
REMARK  120  A    between atoms: _333  and  _336
REMARK  121  A    between atoms: _336  and  _337
REMARK  122  A    between atoms: _340  and  _342
REMARK  123  A    between atoms: _342  and  _343
REMARK  124  A    between atoms: _342  and  _345
REMARK  125  A    between atoms: _347  and  _349
REMARK  126  A    between atoms: _349  and  _350
REMARK  127  A    between atoms: _349  and  _352
REMARK  128  A    between atoms: _355  and  _357
REMARK  129  A    between atoms: _357  and  _358
REMARK  130  A    between atoms: _357  and  _360
REMARK  131  A    between atoms: _360  and  _361
REMARK  132  A    between atoms: _371  and  _373
REMARK  133  A    between atoms: _373  and  _374
REMARK  134  A    between atoms: _373  and  _376
REMARK  135  A    between atoms: _376  and  _377
REMARK  136  A    between atoms: _382  and  _384
REMARK  137  A    between atoms: _384  and  _385
REMARK  138  A    between atoms: _384  and  _387
REMARK  139  A    between atoms: _387  and  _388
REMARK  140  A    between atoms: _388  and  _389
REMARK  141  A    between atoms: _389  and  _390
REMARK                            x       y       z     vdW  Elec       q    Type
REMARK                         _______ _______ _______ _____ _____    ______ ____
ROOT
ATOM      1  C   ALA A   2     -12.502   5.041  20.838  0.00  0.00    +0.241 C 
ATOM      2  N   VAL A   3     -12.033   3.827  21.120  0.00  0.00    -0.297 N 
ATOM      3  H   VAL A   3     -11.654   3.626  22.067  0.00  0.00    +0.150 HD
ATOM      4  O   ALA A   2     -12.928   5.368  19.744  0.00  0.00    -0.273 OA
ENDROOT
BRANCH   1   5
ATOM      5  CA  ALA A   2     -12.445   6.038  21.953  0.00  0.00    +0.149 C 
ATOM      6  CB  ALA A   2     -13.815   6.472  22.390  0.00  0.00    +0.031 C 
BRANCH   5   9
ATOM      7  C   LEU A   1     -10.624   7.660  22.078  0.00  0.00    +0.238 C 
ATOM      8  O   LEU A   1     -10.336   7.394  23.231  0.00  0.00    -0.274 OA
ATOM      9  N   ALA A   2     -11.693   7.175  21.444  0.00  0.00    -0.297 N 
ATOM     10  H   ALA A   2     -11.999   7.624  20.557  0.00  0.00    +0.150 HD
BRANCH   7  11
ATOM     11  CA  LEU A   1      -9.742   8.579  21.274  0.00  0.00    +0.145 C 
BRANCH  11  12
ATOM     12  N   LEU A   1      -9.039   9.529  22.136  0.00  0.00    -0.238 NA
ATOM     13  H   LEU A   1      -8.428   9.171  22.898  0.00  0.00    +0.142 HD
ENDBRANCH  11  12
BRANCH  11  14
ATOM     14  CB  LEU A   1      -8.758   7.713  20.518  0.00  0.00    +0.026 C 
BRANCH  14  15
ATOM     15  CG  LEU A   1      -7.840   8.336  19.470  0.00  0.00    +0.002 C 
ATOM     16  CD2 LEU A   1      -7.153   7.266  18.611  0.00  0.00    +0.000 C 
ATOM     17  CD1 LEU A   1      -8.447   9.386  18.599  0.00  0.00    +0.000 C 
ENDBRANCH  14  15
ENDBRANCH  11  14
ENDBRANCH   7  11
ENDBRANCH   5   9
ENDBRANCH   1   5
BRANCH   2  18
ATOM     18  CA  VAL A   3     -12.048   2.777  20.105  0.00  0.00    +0.149 C 
BRANCH  18  19
ATOM     19  C   VAL A   3     -13.003   1.689  20.571  0.00  0.00    +0.241 C 
ATOM     20  O   VAL A   3     -12.851   1.184  21.682  0.00  0.00    -0.273 OA
ATOM     21  N   LEU A   4     -14.002   1.400  19.735  0.00  0.00    -0.298 N 
ATOM     22  H   LEU A   4     -14.086   1.963  18.864  0.00  0.00    +0.150 HD
BRANCH  21  23
ATOM     23  CA  LEU A   4     -14.982   0.349  19.962  0.00  0.00    +0.137 C 
BRANCH  23  24
ATOM     24  C   LEU A   4     -14.419  -0.884  19.287  0.00  0.00    +0.227 C 
ATOM     25  O   LEU A   4     -14.225  -0.933  18.065  0.00  0.00    -0.286 OA
ENDBRANCH  23  24
BRANCH  23  26
ATOM     26  CB  LEU A   4     -16.327   0.772  19.358  0.00  0.00    +0.028 C 
BRANCH  26  27
ATOM     27  CG  LEU A   4     -17.515  -0.156  19.541  0.00  0.00    +0.002 C 
ATOM     28  CD2 LEU A   4     -17.759  -0.419  20.994  0.00  0.00    +0.000 C 
ATOM     29  CD1 LEU A   4     -18.749   0.509  18.896  0.00  0.00    +0.000 C 
ENDBRANCH  26  27
ENDBRANCH  23  26
ENDBRANCH  21  23
ENDBRANCH  18  19
BRANCH  18  30
ATOM     30  CB  VAL A   3     -10.650   2.198  19.789  0.00  0.00    +0.027 C 
ATOM     31  CG2 VAL A   3      -9.714   3.313  19.369  0.00  0.00    +0.002 C 
ATOM     32  CG1 VAL A   3     -10.736   1.178  18.658  0.00  0.00    +0.002 C 
ENDBRANCH  18  30
ENDBRANCH   2  18
TORSDOF 13
REMARK  Name = ../refined-set-2016/3p5l/3p5l_pocket.pdb
REMARK  141 active torsions:
REMARK  status: ('A' for Active; 'I' for Inactive)
REMARK    1  A    between atoms: _1  and  _3
REMARK    2  A    between atoms: _3  and  _4
REMARK    3  A    between atoms: _3  and  _6
REMARK    4  A    between atoms: _6  and  _7
REMARK    5  A    between atoms: _17  and  _19
REMARK    6  A    between atoms: _19  and  _20
REMARK    7  A    between atoms: _19  and  _22
REMARK    8  A    between atoms: _22  and  _23
REMARK    9  A    between atoms: _28  and  _29
REMARK   10  A    between atoms: _31  and  _33
REMARK   11  A    between atoms: _33  and  _34
REMARK   12  A    between atoms: _33  and  _36
REMARK   13  A    between atoms: _36  and  _37
REMARK   14  A    between atoms: _40  and  _42
REMARK   15  A    between atoms: _42  and  _43
REMARK   16  A    between atoms: _42  and  _45
REMARK   17  A    between atoms: _45  and  _46
REMARK   18  A    between atoms: _51  and  _53
REMARK   19  A    between atoms: _53  and  _54
REMARK   20  A    between atoms: _53  and  _56
REMARK   21  A    between atoms: _56  and  _57
REMARK   22  A    between atoms: _62  and  _64
REMARK   23  A    between atoms: _64  and  _65
REMARK   24  A    between atoms: _68  and  _70
REMARK   25  A    between atoms: _70  and  _71
REMARK   26  A    between atoms: _70  and  _73
REMARK   27  A    between atoms: _73  and  _74
REMARK   28  A    between atoms: _80  and  _82
REMARK   29  A    between atoms: _82  and  _83
REMARK   30  A    between atoms: _82  and  _85
REMARK   31  A    between atoms: _85  and  _86
REMARK   32  A    between atoms: _91  and  _93
REMARK   33  A    between atoms: _93  and  _94
REMARK   34  A    between atoms: _93  and  _96
REMARK   35  A    between atoms: _96  and  _97
REMARK   36  A    between atoms: _100  and  _102
REMARK   37  A    between atoms: _102  and  _103
REMARK   38  A    between atoms: _102  and  _105
REMARK   39  A    between atoms: _105  and  _106
REMARK   40  A    between atoms: _106  and  _107
REMARK   41  A    between atoms: _112  and  _114
REMARK   42  A    between atoms: _114  and  _115
REMARK   43  A    between atoms: _114  and  _117
REMARK   44  A    between atoms: _117  and  _118
REMARK   45  A    between atoms: _124  and  _126
REMARK   46  A    between atoms: _137  and  _140
REMARK   47  A    between atoms: _140  and  _141
REMARK   48  A    between atoms: _149  and  _150
REMARK   49  A    between atoms: _158  and  _160
REMARK   50  A    between atoms: _160  and  _161
REMARK   51  A    between atoms: _160  and  _163
REMARK   52  A    between atoms: _163  and  _164
REMARK   53  A    between atoms: _164  and  _165
REMARK   54  A    between atoms: _168  and  _170
REMARK   55  A    between atoms: _170  and  _171
REMARK   56  A    between atoms: _170  and  _173
REMARK   57  A    between atoms: _173  and  _174
REMARK   58  A    between atoms: _177  and  _179
REMARK   59  A    between atoms: _179  and  _180
REMARK   60  A    between atoms: _179  and  _182
REMARK   61  A    between atoms: _182  and  _183
REMARK   62  A    between atoms: _184  and  ZN_399
REMARK   63  A    between atoms: _188  and  _190
REMARK   64  A    between atoms: _190  and  _191
REMARK   65  A    between atoms: _190  and  _193
REMARK   66  A    between atoms: _193  and  _194
REMARK   67  A    between atoms: _197  and  _199
REMARK   68  A    between atoms: _199  and  _200
REMARK   69  A    between atoms: _199  and  _202
REMARK   70  A    between atoms: _205  and  _207
REMARK   71  A    between atoms: _207  and  _208
REMARK   72  A    between atoms: _207  and  _210
REMARK   73  A    between atoms: _210  and  _211
REMARK   74  A    between atoms: _216  and  _218
REMARK   75  A    between atoms: _218  and  _219
REMARK   76  A    between atoms: _218  and  _221
REMARK   77  A    between atoms: _221  and  _222
REMARK   78  A    between atoms: _228  and  _230
REMARK   79  A    between atoms: _230  and  _231
REMARK   80  A    between atoms: _233  and  _235
REMARK   81  A    between atoms: _235  and  _236
REMARK   82  A    between atoms: _235  and  _238
REMARK   83  A    between atoms: _241  and  _243
REMARK   84  A    between atoms: _243  and  _244
REMARK   85  A    between atoms: _243  and  _246
REMARK   86  A    between atoms: _246  and  _247
REMARK   87  A    between atoms: _250  and  _252
REMARK   88  A    between atoms: _252  and  _253
REMARK   89  A    between atoms: _256  and  _258
REMARK   90  A    between atoms: _258  and  _259
REMARK   91  A    between atoms: _258  and  _261
REMARK   92  A    between atoms: _264  and  _266
REMARK   93  A    between atoms: _266  and  _267
REMARK   94  A    between atoms: _266  and  _269
REMARK   95  A    between atoms: _269  and  _270
REMARK   96  A    between atoms: _273  and  _275
REMARK   97  A    between atoms: _275  and  _276
REMARK   98  A    between atoms: _275  and  _278
REMARK   99  A    between atoms: _278  and  _279
REMARK  100  A    between atoms: _281  and  _283
REMARK  101  A    between atoms: _283  and  _284
REMARK  102  A    between atoms: _283  and  _286
REMARK  103  A    between atoms: _286  and  _287
REMARK  104  A    between atoms: _290  and  _292
REMARK  105  A    between atoms: _292  and  _293
REMARK  106  A    between atoms: _292  and  _295
REMARK  107  A    between atoms: _295  and  _296
REMARK  108  A    between atoms: _299  and  _301
REMARK  109  A    between atoms: _301  and  _302
REMARK  110  A    between atoms: _301  and  _304
REMARK  111  A    between atoms: _304  and  _305
REMARK  112  A    between atoms: _309  and  _310
REMARK  113  A    between atoms: _316  and  _317
REMARK  114  A    between atoms: _322  and  _324
REMARK  115  A    between atoms: _324  and  _325
REMARK  116  A    between atoms: _324  and  _327
REMARK  117  A    between atoms: _327  and  _328
REMARK  118  A    between atoms: _331  and  _333
REMARK  119  A    between atoms: _333  and  _334
REMARK  120  A    between atoms: _333  and  _336
REMARK  121  A    between atoms: _336  and  _337
REMARK  122  A    between atoms: _340  and  _342
REMARK  123  A    between atoms: _342  and  _343
REMARK  124  A    between atoms: _342  and  _345
REMARK  125  A    between atoms: _347  and  _349
REMARK  126  A    between atoms: _349  and  _350
REMARK  127  A    between atoms: _349  and  _352
REMARK  128  A    between atoms: _355  and  _357
REMARK  129  A    between atoms: _357  and  _358
REMARK  130  A    between atoms: _357  and  _360
REMARK  131  A    between atoms: _360  and  _361
REMARK  132  A    between atoms: _371  and  _373
REMARK  133  A    between atoms: _373  and  _374
REMARK  134  A    between atoms: _373  and  _376
REMARK  135  A    between atoms: _376  and  _377
REMARK  136  A    between atoms: _382  and  _384
REMARK  137  A    between atoms: _384  and  _385
REMARK  138  A    between atoms: _384  and  _387
REMARK  139  A    between atoms: _387  and  _388
REMARK  140  A    between atoms: _388  and  _389
REMARK  141  A    between atoms: _389  and  _390
REMARK                            x       y       z     vdW  Elec       q    Type
REMARK                         _______ _______ _______ _____ _____    ______ ____
ROOT
ATOM      1  C   THR A   4       0.974   1.207  16.438  0.00  0.00    +0.246 C 
ATOM      2  O   THR A   4       0.459   2.144  17.052  0.00  0.00    -0.273 OA
ATOM      3  N   PRO A   5       2.238   1.232  16.005  0.00  0.00    -0.272 N 
ATOM      4  CA  PRO A   5       2.929   2.510  16.045  0.00  0.00    +0.152 C 
ATOM      5  CB  PRO A   5       4.188   2.234  15.199  0.00  0.00    +0.031 C 
ATOM      6  CG  PRO A   5       4.471   0.801  15.463  0.00  0.00    +0.024 C 
ATOM      7  CD  PRO A   5       3.085   0.178  15.424  0.00  0.00    +0.094 C 
ENDROOT
BRANCH   4   8
ATOM      8  C   PRO A   5       2.040   3.614  15.472  0.00  0.00    +0.244 C 
ATOM      9  N   PRO A   6       2.067   4.787  16.093  0.00  0.00    -0.272 N 
ATOM     10  CA  PRO A   6       2.948   5.266  17.161  0.00  0.00    +0.152 C 
ATOM     11  CB  PRO A   6       2.817   6.784  17.028  0.00  0.00    +0.031 C 
ATOM     12  CG  PRO A   6       1.427   6.996  16.511  0.00  0.00    +0.024 C 
ATOM     13  CD  PRO A   6       1.142   5.832  15.618  0.00  0.00    +0.094 C 
ATOM     14  O   PRO A   5       1.334   3.416  14.462  0.00  0.00    -0.273 OA
BRANCH  10  15
ATOM     15  C   PRO A   6       2.652   4.848  18.617  0.00  0.00    +0.241 C 
ATOM     16  O   PRO A   6       3.296   5.361  19.531  0.00  0.00    -0.273 OA
ATOM     17  N   LEU A   7       1.662   3.972  18.816  0.00  0.00    -0.297 N 
ATOM     18  H   LEU A   7       1.033   3.735  18.022  0.00  0.00    +0.150 HD
BRANCH  17  19
ATOM     19  CA  LEU A   7       1.432   3.330  20.123  0.00  0.00    +0.149 C 
BRANCH  19  20
ATOM     20  C   LEU A   7       1.035   4.346  21.190  0.00  0.00    +0.241 C 
ATOM     21  O   LEU A   7       1.177   4.128  22.382  0.00  0.00    -0.273 OA
ATOM     22  N   LEU A   8       0.435   5.443  20.724  0.00  0.00    -0.298 N 
ATOM     23  H   LEU A   8       0.185   5.517  19.717  0.00  0.00    +0.150 HD
BRANCH  22  24
ATOM     24  CA  LEU A   8       0.133   6.535  21.638  0.00  0.00    +0.137 C 
BRANCH  24  25
ATOM     25  C   LEU A   8      -0.910   6.146  22.687  0.00  0.00    +0.227 C 
ATOM     26  O   LEU A   8      -1.896   5.486  22.397  0.00  0.00    -0.286 OA
ENDBRANCH  24  25
BRANCH  24  27
ATOM     27  CB  LEU A   8      -0.325   7.761  20.829  0.00  0.00    +0.028 C 
BRANCH  27  28
ATOM     28  CG  LEU A   8       0.699   8.327  19.837  0.00  0.00    +0.002 C 
ATOM     29  CD2 LEU A   8       1.828   8.969  20.602  0.00  0.00    +0.000 C 
ATOM     30  CD1 LEU A   8       0.053   9.317  18.905  0.00  0.00    +0.000 C 
ENDBRANCH  27  28
ENDBRANCH  24  27
ENDBRANCH  22  24
ENDBRANCH  19  20
BRANCH  19  31
ATOM     31  CB  LEU A   7       2.627   2.479  20.577  0.00  0.00    +0.029 C 
BRANCH  31  32
ATOM     32  CG  LEU A   7       2.915   1.296  19.612  0.00  0.00    +0.002 C 
ATOM     33  CD2 LEU A   7       4.249   0.649  19.978  0.00  0.00    +0.000 C 
ATOM     34  CD1 LEU A   7       1.814   0.216  19.567  0.00  0.00    +0.000 C 
ENDBRANCH  31  32
ENDBRANCH  19  31
ENDBRANCH  17  19
ENDBRANCH  10  15
ENDBRANCH   4   8
BRANCH   1  35
ATOM     35  CA  THR A   4       0.173  -0.037  16.113  0.00  0.00    +0.176 C 
BRANCH  35  38
ATOM     36  C   THR A   3      -1.078  -1.218  17.867  0.00  0.00    +0.243 C 
ATOM     37  O   THR A   3      -0.434  -2.266  17.731  0.00  0.00    -0.273 OA
ATOM     38  N   THR A   4      -0.955  -0.170  17.043  0.00  0.00    -0.295 N 
ATOM     39  H   THR A   4      -1.682   0.574  17.062  0.00  0.00    +0.150 HD
BRANCH  36  40
ATOM     40  CA  THR A   3      -2.042  -1.098  19.017  0.00  0.00    +0.176 C 
BRANCH  40  43
ATOM     41  C   LEU A   2      -2.338   1.155  19.877  0.00  0.00    +0.241 C 
ATOM     42  O   LEU A   2      -1.334   1.030  20.608  0.00  0.00    -0.273 OA
ATOM     43  N   THR A   3      -2.724   0.199  19.044  0.00  0.00    -0.295 N 
ATOM     44  H   THR A   3      -3.522   0.372  18.400  0.00  0.00    +0.150 HD
BRANCH  41  45
ATOM     45  CA  LEU A   2      -3.130   2.459  19.858  0.00  0.00    +0.149 C 
BRANCH  45  48
ATOM     46  C   SER A   1      -3.625   2.368  22.213  0.00  0.00    +0.241 C 
ATOM     47  O   SER A   1      -4.396   1.407  22.068  0.00  0.00    -0.274 OA
ATOM     48  N   LEU A   2      -3.098   3.028  21.190  0.00  0.00    -0.297 N 
ATOM     49  H   LEU A   2      -2.660   3.958  21.345  0.00  0.00    +0.150 HD
BRANCH  46  50
ATOM     50  CA  SER A   1      -3.174   2.817  23.594  0.00  0.00    +0.174 C 
BRANCH  50  51
ATOM     51  N   SER A   1      -3.961   2.225  24.676  0.00  0.00    -0.236 NA
ATOM     52  H   SER A   1      -4.212   1.217  24.617  0.00  0.00    +0.142 HD
ENDBRANCH  50  51
BRANCH  50  53
ATOM     53  CB  SER A   1      -1.684   2.468  23.736  0.00  0.00    +0.163 C 
BRANCH  53  54
ATOM     54  OG  SER A   1      -1.427   1.115  23.353  0.00  0.00    -0.380 OA
ATOM     55  H   SER A   1      -1.692   0.985  22.408  0.00  0.00    +0.211 HD
ENDBRANCH  53  54
ENDBRANCH  50  53
ENDBRANCH  46  50
ENDBRANCH  45  48
BRANCH  45  56
ATOM     56  CB  LEU A   2      -2.469   3.361  18.824  0.00  0.00    +0.029 C 
BRANCH  56  57
ATOM     57  CG  LEU A   2      -3.020   4.770  18.742  0.00  0.00    +0.002 C 
ATOM     58  CD2 LEU A   2      -4.494   4.697  18.295  0.00  0.00    +0.000 C 
ATOM     59  CD1 LEU A   2      -2.153   5.626  17.800  0.00  0.00    +0.000 C 
ENDBRANCH  56  57
ENDBRANCH  45  56
ENDBRANCH  41  45
ENDBRANCH  40  43
BRANCH  40  60
ATOM     60  CB  THR A   3      -3.032  -2.232  18.898  0.00  0.00    +0.137 C 
ATOM     61  CG2 THR A   3      -4.036  -2.230  20.075  0.00  0.00    +0.034 C 
BRANCH  60  62
ATOM     62  OG1 THR A   3      -3.744  -2.078  17.674  0.00  0.00    -0.382 OA
ATOM     63  HG1 THR A   3      -4.399  -2.815  17.580  0.00  0.00    +0.210 HD
ENDBRANCH  60  62
ENDBRANCH  40  60
ENDBRANCH  36  40
ENDBRANCH  35  38
BRANCH  35  64
ATOM     64  CB  THR A   4      -0.299   0.118  14.650  0.00  0.00    +0.137 C 
ATOM     65  CG2 THR A   4      -1.355  -0.879  14.313  0.00  0.00    +0.034 C 
BRANCH  64  66
ATOM     66  OG1 THR A   4      -0.857   1.429  14.452  0.00  0.00    -0.382 OA
ATOM     67  HG1 THR A   4      -0.168   2.113  14.648  0.00  0.00    +0.210 HD
ENDBRANCH  64  66
ENDBRANCH  35  64
ENDBRANCH   1  35
TORSDOF 26
REMARK  Name = ../refined-set-2016/3p5l/3p5l_pocket.pdb
REMARK  141 active torsions:
REMARK  status: ('A' for Active; 'I' for Inactive)
REMARK    1  A    between atoms: _1  and  _3
REMARK    2  A    between atoms: _3  and  _4
REMARK    3  A    between atoms: _3  and  _6
REMARK    4  A    between atoms: _6  and  _7
REMARK    5  A    between atoms: _17  and  _19
REMARK    6  A    between atoms: _19  and  _20
REMARK    7  A    between atoms: _19  and  _22
REMARK    8  A    between atoms: _22  and  _23
REMARK    9  A    between atoms: _28  and  _29
REMARK   10  A    between atoms: _31  and  _33
REMARK   11  A    between atoms: _33  and  _34
REMARK   12  A    between atoms: _33  and  _36
REMARK   13  A    between atoms: _36  and  _37
REMARK   14  A    between atoms: _40  and  _42
REMARK   15  A    between atoms: _42  and  _43
REMARK   16  A    between atoms: _42  and  _45
REMARK   17  A    between atoms: _45  and  _46
REMARK   18  A    between atoms: _51  and  _53
REMARK   19  A    between atoms: _53  and  _54
REMARK   20  A    between atoms: _53  and  _56
REMARK   21  A    between atoms: _56  and  _57
REMARK   22  A    between atoms: _62  and  _64
REMARK   23  A    between atoms: _64  and  _65
REMARK   24  A    between atoms: _68  and  _70
REMARK   25  A    between atoms: _70  and  _71
REMARK   26  A    between atoms: _70  and  _73
REMARK   27  A    between atoms: _73  and  _74
REMARK   28  A    between atoms: _80  and  _82
REMARK   29  A    between atoms: _82  and  _83
REMARK   30  A    between atoms: _82  and  _85
REMARK   31  A    between atoms: _85  and  _86
REMARK   32  A    between atoms: _91  and  _93
REMARK   33  A    between atoms: _93  and  _94
REMARK   34  A    between atoms: _93  and  _96
REMARK   35  A    between atoms: _96  and  _97
REMARK   36  A    between atoms: _100  and  _102
REMARK   37  A    between atoms: _102  and  _103
REMARK   38  A    between atoms: _102  and  _105
REMARK   39  A    between atoms: _105  and  _106
REMARK   40  A    between atoms: _106  and  _107
REMARK   41  A    between atoms: _112  and  _114
REMARK   42  A    between atoms: _114  and  _115
REMARK   43  A    between atoms: _114  and  _117
REMARK   44  A    between atoms: _117  and  _118
REMARK   45  A    between atoms: _124  and  _126
REMARK   46  A    between atoms: _137  and  _140
REMARK   47  A    between atoms: _140  and  _141
REMARK   48  A    between atoms: _149  and  _150
REMARK   49  A    between atoms: _158  and  _160
REMARK   50  A    between atoms: _160  and  _161
REMARK   51  A    between atoms: _160  and  _163
REMARK   52  A    between atoms: _163  and  _164
REMARK   53  A    between atoms: _164  and  _165
REMARK   54  A    between atoms: _168  and  _170
REMARK   55  A    between atoms: _170  and  _171
REMARK   56  A    between atoms: _170  and  _173
REMARK   57  A    between atoms: _173  and  _174
REMARK   58  A    between atoms: _177  and  _179
REMARK   59  A    between atoms: _179  and  _180
REMARK   60  A    between atoms: _179  and  _182
REMARK   61  A    between atoms: _182  and  _183
REMARK   62  A    between atoms: _184  and  ZN_399
REMARK   63  A    between atoms: _188  and  _190
REMARK   64  A    between atoms: _190  and  _191
REMARK   65  A    between atoms: _190  and  _193
REMARK   66  A    between atoms: _193  and  _194
REMARK   67  A    between atoms: _197  and  _199
REMARK   68  A    between atoms: _199  and  _200
REMARK   69  A    between atoms: _199  and  _202
REMARK   70  A    between atoms: _205  and  _207
REMARK   71  A    between atoms: _207  and  _208
REMARK   72  A    between atoms: _207  and  _210
REMARK   73  A    between atoms: _210  and  _211
REMARK   74  A    between atoms: _216  and  _218
REMARK   75  A    between atoms: _218  and  _219
REMARK   76  A    between atoms: _218  and  _221
REMARK   77  A    between atoms: _221  and  _222
REMARK   78  A    between atoms: _228  and  _230
REMARK   79  A    between atoms: _230  and  _231
REMARK   80  A    between atoms: _233  and  _235
REMARK   81  A    between atoms: _235  and  _236
REMARK   82  A    between atoms: _235  and  _238
REMARK   83  A    between atoms: _241  and  _243
REMARK   84  A    between atoms: _243  and  _244
REMARK   85  A    between atoms: _243  and  _246
REMARK   86  A    between atoms: _246  and  _247
REMARK   87  A    between atoms: _250  and  _252
REMARK   88  A    between atoms: _252  and  _253
REMARK   89  A    between atoms: _256  and  _258
REMARK   90  A    between atoms: _258  and  _259
REMARK   91  A    between atoms: _258  and  _261
REMARK   92  A    between atoms: _264  and  _266
REMARK   93  A    between atoms: _266  and  _267
REMARK   94  A    between atoms: _266  and  _269
REMARK   95  A    between atoms: _269  and  _270
REMARK   96  A    between atoms: _273  and  _275
REMARK   97  A    between atoms: _275  and  _276
REMARK   98  A    between atoms: _275  and  _278
REMARK   99  A    between atoms: _278  and  _279
REMARK  100  A    between atoms: _281  and  _283
REMARK  101  A    between atoms: _283  and  _284
REMARK  102  A    between atoms: _283  and  _286
REMARK  103  A    between atoms: _286  and  _287
REMARK  104  A    between atoms: _290  and  _292
REMARK  105  A    between atoms: _292  and  _293
REMARK  106  A    between atoms: _292  and  _295
REMARK  107  A    between atoms: _295  and  _296
REMARK  108  A    between atoms: _299  and  _301
REMARK  109  A    between atoms: _301  and  _302
REMARK  110  A    between atoms: _301  and  _304
REMARK  111  A    between atoms: _304  and  _305
REMARK  112  A    between atoms: _309  and  _310
REMARK  113  A    between atoms: _316  and  _317
REMARK  114  A    between atoms: _322  and  _324
REMARK  115  A    between atoms: _324  and  _325
REMARK  116  A    between atoms: _324  and  _327
REMARK  117  A    between atoms: _327  and  _328
REMARK  118  A    between atoms: _331  and  _333
REMARK  119  A    between atoms: _333  and  _334
REMARK  120  A    between atoms: _333  and  _336
REMARK  121  A    between atoms: _336  and  _337
REMARK  122  A    between atoms: _340  and  _342
REMARK  123  A    between atoms: _342  and  _343
REMARK  124  A    between atoms: _342  and  _345
REMARK  125  A    between atoms: _347  and  _349
REMARK  126  A    between atoms: _349  and  _350
REMARK  127  A    between atoms: _349  and  _352
REMARK  128  A    between atoms: _355  and  _357
REMARK  129  A    between atoms: _357  and  _358
REMARK  130  A    between atoms: _357  and  _360
REMARK  131  A    between atoms: _360  and  _361
REMARK  132  A    between atoms: _371  and  _373
REMARK  133  A    between atoms: _373  and  _374
REMARK  134  A    between atoms: _373  and  _376
REMARK  135  A    between atoms: _376  and  _377
REMARK  136  A    between atoms: _382  and  _384
REMARK  137  A    between atoms: _384  and  _385
REMARK  138  A    between atoms: _384  and  _387
REMARK  139  A    between atoms: _387  and  _388
REMARK  140  A    between atoms: _388  and  _389
REMARK  141  A    between atoms: _389  and  _390
REMARK                            x       y       z     vdW  Elec       q    Type
REMARK                         _______ _______ _______ _____ _____    ______ ____
ROOT
ATOM      1  C   CYS A   1      -6.038   7.540  23.906  0.00  0.00    +0.239 C 
ATOM      2  N   VAL A   2      -6.183   6.241  24.216  0.00  0.00    -0.298 N 
ATOM      3  H   VAL A   2      -5.404   5.741  24.691  0.00  0.00    +0.150 HD
ATOM      4  O   CYS A   1      -6.956   8.243  23.564  0.00  0.00    -0.274 OA
ENDROOT
BRANCH   1   5
ATOM      5  CA  CYS A   1      -4.653   8.159  24.029  0.00  0.00    +0.156 C 
BRANCH   5   6
ATOM      6  N   CYS A   1      -3.593   7.155  24.181  0.00  0.00    -0.237 NA
ATOM      7  H   CYS A   1      -3.532   6.377  23.494  0.00  0.00    +0.142 HD
ENDBRANCH   5   6
BRANCH   5   8
ATOM      8  CB  CYS A   1      -4.430   9.008  22.786  0.00  0.00    +0.095 C 
ATOM      9  SG  CYS A   1      -4.345   8.017  21.264  0.00  0.00    -0.080 S 
ENDBRANCH   5   8
ENDBRANCH   1   5
BRANCH   2  10
ATOM     10  CA  VAL A   2      -7.419   5.510  23.899  0.00  0.00    +0.137 C 
BRANCH  10  11
ATOM     11  CB  VAL A   2      -7.111   4.229  23.057  0.00  0.00    +0.026 C 
ATOM     12  CG2 VAL A   2      -8.418   3.505  22.728  0.00  0.00    +0.002 C 
ATOM     13  CG1 VAL A   2      -6.310   4.577  21.782  0.00  0.00    +0.002 C 
ENDBRANCH  10  11
BRANCH  10  14
ATOM     14  C   VAL A   2      -8.192   5.066  25.123  0.00  0.00    +0.227 C 
ATOM     15  O   VAL A   2      -7.639   4.434  26.007  0.00  0.00    -0.286 OA
ENDBRANCH  10  14
ENDBRANCH   2  10
TORSDOF 6
REMARK  Name = ../refined-set-2016/3p5l/3p5l_pocket.pdb
REMARK  141 active torsions:
REMARK  status: ('A' for Active; 'I' for Inactive)
REMARK    1  A    between atoms: _1  and  _3
REMARK    2  A    between atoms: _3  and  _4
REMARK    3  A    between atoms: _3  and  _6
REMARK    4  A    between atoms: _6  and  _7
REMARK    5  A    between atoms: _17  and  _19
REMARK    6  A    between atoms: _19  and  _20
REMARK    7  A    between atoms: _19  and  _22
REMARK    8  A    between atoms: _22  and  _23
REMARK    9  A    between atoms: _28  and  _29
REMARK   10  A    between atoms: _31  and  _33
REMARK   11  A    between atoms: _33  and  _34
REMARK   12  A    between atoms: _33  and  _36
REMARK   13  A    between atoms: _36  and  _37
REMARK   14  A    between atoms: _40  and  _42
REMARK   15  A    between atoms: _42  and  _43
REMARK   16  A    between atoms: _42  and  _45
REMARK   17  A    between atoms: _45  and  _46
REMARK   18  A    between atoms: _51  and  _53
REMARK   19  A    between atoms: _53  and  _54
REMARK   20  A    between atoms: _53  and  _56
REMARK   21  A    between atoms: _56  and  _57
REMARK   22  A    between atoms: _62  and  _64
REMARK   23  A    between atoms: _64  and  _65
REMARK   24  A    between atoms: _68  and  _70
REMARK   25  A    between atoms: _70  and  _71
REMARK   26  A    between atoms: _70  and  _73
REMARK   27  A    between atoms: _73  and  _74
REMARK   28  A    between atoms: _80  and  _82
REMARK   29  A    between atoms: _82  and  _83
REMARK   30  A    between atoms: _82  and  _85
REMARK   31  A    between atoms: _85  and  _86
REMARK   32  A    between atoms: _91  and  _93
REMARK   33  A    between atoms: _93  and  _94
REMARK   34  A    between atoms: _93  and  _96
REMARK   35  A    between atoms: _96  and  _97
REMARK   36  A    between atoms: _100  and  _102
REMARK   37  A    between atoms: _102  and  _103
REMARK   38  A    between atoms: _102  and  _105
REMARK   39  A    between atoms: _105  and  _106
REMARK   40  A    between atoms: _106  and  _107
REMARK   41  A    between atoms: _112  and  _114
REMARK   42  A    between atoms: _114  and  _115
REMARK   43  A    between atoms: _114  and  _117
REMARK   44  A    between atoms: _117  and  _118
REMARK   45  A    between atoms: _124  and  _126
REMARK   46  A    between atoms: _137  and  _140
REMARK   47  A    between atoms: _140  and  _141
REMARK   48  A    between atoms: _149  and  _150
REMARK   49  A    between atoms: _158  and  _160
REMARK   50  A    between atoms: _160  and  _161
REMARK   51  A    between atoms: _160  and  _163
REMARK   52  A    between atoms: _163  and  _164
REMARK   53  A    between atoms: _164  and  _165
REMARK   54  A    between atoms: _168  and  _170
REMARK   55  A    between atoms: _170  and  _171
REMARK   56  A    between atoms: _170  and  _173
REMARK   57  A    between atoms: _173  and  _174
REMARK   58  A    between atoms: _177  and  _179
REMARK   59  A    between atoms: _179  and  _180
REMARK   60  A    between atoms: _179  and  _182
REMARK   61  A    between atoms: _182  and  _183
REMARK   62  A    between atoms: _184  and  ZN_399
REMARK   63  A    between atoms: _188  and  _190
REMARK   64  A    between atoms: _190  and  _191
REMARK   65  A    between atoms: _190  and  _193
REMARK   66  A    between atoms: _193  and  _194
REMARK   67  A    between atoms: _197  and  _199
REMARK   68  A    between atoms: _199  and  _200
REMARK   69  A    between atoms: _199  and  _202
REMARK   70  A    between atoms: _205  and  _207
REMARK   71  A    between atoms: _207  and  _208
REMARK   72  A    between atoms: _207  and  _210
REMARK   73  A    between atoms: _210  and  _211
REMARK   74  A    between atoms: _216  and  _218
REMARK   75  A    between atoms: _218  and  _219
REMARK   76  A    between atoms: _218  and  _221
REMARK   77  A    between atoms: _221  and  _222
REMARK   78  A    between atoms: _228  and  _230
REMARK   79  A    between atoms: _230  and  _231
REMARK   80  A    between atoms: _233  and  _235
REMARK   81  A    between atoms: _235  and  _236
REMARK   82  A    between atoms: _235  and  _238
REMARK   83  A    between atoms: _241  and  _243
REMARK   84  A    between atoms: _243  and  _244
REMARK   85  A    between atoms: _243  and  _246
REMARK   86  A    between atoms: _246  and  _247
REMARK   87  A    between atoms: _250  and  _252
REMARK   88  A    between atoms: _252  and  _253
REMARK   89  A    between atoms: _256  and  _258
REMARK   90  A    between atoms: _258  and  _259
REMARK   91  A    between atoms: _258  and  _261
REMARK   92  A    between atoms: _264  and  _266
REMARK   93  A    between atoms: _266  and  _267
REMARK   94  A    between atoms: _266  and  _269
REMARK   95  A    between atoms: _269  and  _270
REMARK   96  A    between atoms: _273  and  _275
REMARK   97  A    between atoms: _275  and  _276
REMARK   98  A    between atoms: _275  and  _278
REMARK   99  A    between atoms: _278  and  _279
REMARK  100  A    between atoms: _281  and  _283
REMARK  101  A    between atoms: _283  and  _284
REMARK  102  A    between atoms: _283  and  _286
REMARK  103  A    between atoms: _286  and  _287
REMARK  104  A    between atoms: _290  and  _292
REMARK  105  A    between atoms: _292  and  _293
REMARK  106  A    between atoms: _292  and  _295
REMARK  107  A    between atoms: _295  and  _296
REMARK  108  A    between atoms: _299  and  _301
REMARK  109  A    between atoms: _301  and  _302
REMARK  110  A    between atoms: _301  and  _304
REMARK  111  A    between atoms: _304  and  _305
REMARK  112  A    between atoms: _309  and  _310
REMARK  113  A    between atoms: _316  and  _317
REMARK  114  A    between atoms: _322  and  _324
REMARK  115  A    between atoms: _324  and  _325
REMARK  116  A    between atoms: _324  and  _327
REMARK  117  A    between atoms: _327  and  _328
REMARK  118  A    between atoms: _331  and  _333
REMARK  119  A    between atoms: _333  and  _334
REMARK  120  A    between atoms: _333  and  _336
REMARK  121  A    between atoms: _336  and  _337
REMARK  122  A    between atoms: _340  and  _342
REMARK  123  A    between atoms: _342  and  _343
REMARK  124  A    between atoms: _342  and  _345
REMARK  125  A    between atoms: _347  and  _349
REMARK  126  A    between atoms: _349  and  _350
REMARK  127  A    between atoms: _349  and  _352
REMARK  128  A    between atoms: _355  and  _357
REMARK  129  A    between atoms: _357  and  _358
REMARK  130  A    between atoms: _357  and  _360
REMARK  131  A    between atoms: _360  and  _361
REMARK  132  A    between atoms: _371  and  _373
REMARK  133  A    between atoms: _373  and  _374
REMARK  134  A    between atoms: _373  and  _376
REMARK  135  A    between atoms: _376  and  _377
REMARK  136  A    between atoms: _382  and  _384
REMARK  137  A    between atoms: _384  and  _385
REMARK  138  A    between atoms: _384  and  _387
REMARK  139  A    between atoms: _387  and  _388
REMARK  140  A    between atoms: _388  and  _389
REMARK  141  A    between atoms: _389  and  _390
REMARK                            x       y       z     vdW  Elec       q    Type
REMARK                         _______ _______ _______ _____ _____    ______ ____
ROOT
ATOM      1  CG  TRP A   1      -8.893   0.032  24.267  0.00  0.00    -0.002 A 
ATOM      2  CD1 TRP A   1      -7.675   0.581  24.487  0.00  0.00    +0.068 A 
ATOM      3  NE1 TRP A   1      -6.952   0.575  23.318  0.00  0.00    -0.352 N 
ATOM      4  HE1 TRP A   1      -5.993   0.961  23.202  0.00  0.00    +0.166 HD
ATOM      5  CE2 TRP A   1      -7.690  -0.017  22.332  0.00  0.00    +0.056 A 
ATOM      6  CZ2 TRP A   1      -7.404  -0.239  21.010  0.00  0.00    +0.017 A 
ATOM      7  CH2 TRP A   1      -8.380  -0.838  20.240  0.00  0.00    +0.001 A 
ATOM      8  CZ3 TRP A   1      -9.625  -1.158  20.781  0.00  0.00    +0.000 A 
ATOM      9  CE3 TRP A   1      -9.909  -0.921  22.074  0.00  0.00    +0.001 A 
ATOM     10  CD2 TRP A   1      -8.937  -0.331  22.889  0.00  0.00    +0.013 A 
ENDROOT
BRANCH   1  11
ATOM     11  CB  TRP A   1     -10.015  -0.036  25.227  0.00  0.00    +0.053 C 
BRANCH  11  12
ATOM     12  CA  TRP A   1     -11.029   1.114  24.990  0.00  0.00    +0.137 C 
BRANCH  12  13
ATOM     13  N   TRP A   1     -10.561   2.327  25.660  0.00  0.00    -0.239 NA
ATOM     14  H   TRP A   1      -9.920   2.245  26.475  0.00  0.00    +0.142 HD
ENDBRANCH  12  13
BRANCH  12  15
ATOM     15  C   TRP A   1     -12.410   0.716  25.491  0.00  0.00    +0.224 C 
ATOM     16  O   TRP A   1     -12.650   0.664  26.676  0.00  0.00    -0.287 OA
ENDBRANCH  12  15
ENDBRANCH  11  12
ENDBRANCH   1  11
TORSDOF 4
REMARK  Name = ../refined-set-2016/3p5l/3p5l_pocket.pdb
REMARK  141 active torsions:
REMARK  status: ('A' for Active; 'I' for Inactive)
REMARK    1  A    between atoms: _1  and  _3
REMARK    2  A    between atoms: _3  and  _4
REMARK    3  A    between atoms: _3  and  _6
REMARK    4  A    between atoms: _6  and  _7
REMARK    5  A    between atoms: _17  and  _19
REMARK    6  A    between atoms: _19  and  _20
REMARK    7  A    between atoms: _19  and  _22
REMARK    8  A    between atoms: _22  and  _23
REMARK    9  A    between atoms: _28  and  _29
REMARK   10  A    between atoms: _31  and  _33
REMARK   11  A    between atoms: _33  and  _34
REMARK   12  A    between atoms: _33  and  _36
REMARK   13  A    between atoms: _36  and  _37
REMARK   14  A    between atoms: _40  and  _42
REMARK   15  A    between atoms: _42  and  _43
REMARK   16  A    between atoms: _42  and  _45
REMARK   17  A    between atoms: _45  and  _46
REMARK   18  A    between atoms: _51  and  _53
REMARK   19  A    between atoms: _53  and  _54
REMARK   20  A    between atoms: _53  and  _56
REMARK   21  A    between atoms: _56  and  _57
REMARK   22  A    between atoms: _62  and  _64
REMARK   23  A    between atoms: _64  and  _65
REMARK   24  A    between atoms: _68  and  _70
REMARK   25  A    between atoms: _70  and  _71
REMARK   26  A    between atoms: _70  and  _73
REMARK   27  A    between atoms: _73  and  _74
REMARK   28  A    between atoms: _80  and  _82
REMARK   29  A    between atoms: _82  and  _83
REMARK   30  A    between atoms: _82  and  _85
REMARK   31  A    between atoms: _85  and  _86
REMARK   32  A    between atoms: _91  and  _93
REMARK   33  A    between atoms: _93  and  _94
REMARK   34  A    between atoms: _93  and  _96
REMARK   35  A    between atoms: _96  and  _97
REMARK   36  A    between atoms: _100  and  _102
REMARK   37  A    between atoms: _102  and  _103
REMARK   38  A    between atoms: _102  and  _105
REMARK   39  A    between atoms: _105  and  _106
REMARK   40  A    between atoms: _106  and  _107
REMARK   41  A    between atoms: _112  and  _114
REMARK   42  A    between atoms: _114  and  _115
REMARK   43  A    between atoms: _114  and  _117
REMARK   44  A    between atoms: _117  and  _118
REMARK   45  A    between atoms: _124  and  _126
REMARK   46  A    between atoms: _137  and  _140
REMARK   47  A    between atoms: _140  and  _141
REMARK   48  A    between atoms: _149  and  _150
REMARK   49  A    between atoms: _158  and  _160
REMARK   50  A    between atoms: _160  and  _161
REMARK   51  A    between atoms: _160  and  _163
REMARK   52  A    between atoms: _163  and  _164
REMARK   53  A    between atoms: _164  and  _165
REMARK   54  A    between atoms: _168  and  _170
REMARK   55  A    between atoms: _170  and  _171
REMARK   56  A    between atoms: _170  and  _173
REMARK   57  A    between atoms: _173  and  _174
REMARK   58  A    between atoms: _177  and  _179
REMARK   59  A    between atoms: _179  and  _180
REMARK   60  A    between atoms: _179  and  _182
REMARK   61  A    between atoms: _182  and  _183
REMARK   62  A    between atoms: _184  and  ZN_399
REMARK   63  A    between atoms: _188  and  _190
REMARK   64  A    between atoms: _190  and  _191
REMARK   65  A    between atoms: _190  and  _193
REMARK   66  A    between atoms: _193  and  _194
REMARK   67  A    between atoms: _197  and  _199
REMARK   68  A    between atoms: _199  and  _200
REMARK   69  A    between atoms: _199  and  _202
REMARK   70  A    between atoms: _205  and  _207
REMARK   71  A    between atoms: _207  and  _208
REMARK   72  A    between atoms: _207  and  _210
REMARK   73  A    between atoms: _210  and  _211
REMARK   74  A    between atoms: _216  and  _218
REMARK   75  A    between atoms: _218  and  _219
REMARK   76  A    between atoms: _218  and  _221
REMARK   77  A    between atoms: _221  and  _222
REMARK   78  A    between atoms: _228  and  _230
REMARK   79  A    between atoms: _230  and  _231
REMARK   80  A    between atoms: _233  and  _235
REMARK   81  A    between atoms: _235  and  _236
REMARK   82  A    between atoms: _235  and  _238
REMARK   83  A    between atoms: _241  and  _243
REMARK   84  A    between atoms: _243  and  _244
REMARK   85  A    between atoms: _243  and  _246
REMARK   86  A    between atoms: _246  and  _247
REMARK   87  A    between atoms: _250  and  _252
REMARK   88  A    between atoms: _252  and  _253
REMARK   89  A    between atoms: _256  and  _258
REMARK   90  A    between atoms: _258  and  _259
REMARK   91  A    between atoms: _258  and  _261
REMARK   92  A    between atoms: _264  and  _266
REMARK   93  A    between atoms: _266  and  _267
REMARK   94  A    between atoms: _266  and  _269
REMARK   95  A    between atoms: _269  and  _270
REMARK   96  A    between atoms: _273  and  _275
REMARK   97  A    between atoms: _275  and  _276
REMARK   98  A    between atoms: _275  and  _278
REMARK   99  A    between atoms: _278  and  _279
REMARK  100  A    between atoms: _281  and  _283
REMARK  101  A    between atoms: _283  and  _284
REMARK  102  A    between atoms: _283  and  _286
REMARK  103  A    between atoms: _286  and  _287
REMARK  104  A    between atoms: _290  and  _292
REMARK  105  A    between atoms: _292  and  _293
REMARK  106  A    between atoms: _292  and  _295
REMARK  107  A    between atoms: _295  and  _296
REMARK  108  A    between atoms: _299  and  _301
REMARK  109  A    between atoms: _301  and  _302
REMARK  110  A    between atoms: _301  and  _304
REMARK  111  A    between atoms: _304  and  _305
REMARK  112  A    between atoms: _309  and  _310
REMARK  113  A    between atoms: _316  and  _317
REMARK  114  A    between atoms: _322  and  _324
REMARK  115  A    between atoms: _324  and  _325
REMARK  116  A    between atoms: _324  and  _327
REMARK  117  A    between atoms: _327  and  _328
REMARK  118  A    between atoms: _331  and  _333
REMARK  119  A    between atoms: _333  and  _334
REMARK  120  A    between atoms: _333  and  _336
REMARK  121  A    between atoms: _336  and  _337
REMARK  122  A    between atoms: _340  and  _342
REMARK  123  A    between atoms: _342  and  _343
REMARK  124  A    between atoms: _342  and  _345
REMARK  125  A    between atoms: _347  and  _349
REMARK  126  A    between atoms: _349  and  _350
REMARK  127  A    between atoms: _349  and  _352
REMARK  128  A    between atoms: _355  and  _357
REMARK  129  A    between atoms: _357  and  _358
REMARK  130  A    between atoms: _357  and  _360
REMARK  131  A    between atoms: _360  and  _361
REMARK  132  A    between atoms: _371  and  _373
REMARK  133  A    between atoms: _373  and  _374
REMARK  134  A    between atoms: _373  and  _376
REMARK  135  A    between atoms: _376  and  _377
REMARK  136  A    between atoms: _382  and  _384
REMARK  137  A    between atoms: _384  and  _385
REMARK  138  A    between atoms: _384  and  _387
REMARK  139  A    between atoms: _387  and  _388
REMARK  140  A    between atoms: _388  and  _389
REMARK  141  A    between atoms: _389  and  _390
REMARK                            x       y       z     vdW  Elec       q    Type
REMARK                         _______ _______ _______ _____ _____    ______ ____
ROOT
ATOM      1  CB  ASN A   1      -2.046  -7.088  10.442  0.00  0.00    +0.110 C 
ENDROOT
BRANCH   1   2
ATOM      2  CG  ASN A   1      -3.520  -7.308  10.144  0.00  0.00    +0.221 C 
ATOM      3  OD1 ASN A   1      -4.173  -8.165  10.719  0.00  0.00    -0.275 OA
ATOM      4  ND2 ASN A   1      -4.056  -6.501   9.239  0.00  0.00    -0.329 N 
ATOM      5 HD21 ASN A   1      -5.064  -6.586   8.998  0.00  0.00    +0.145 HD
ATOM      6 HD22 ASN A   1      -3.468  -5.783   8.770  0.00  0.00    +0.145 HD
ENDBRANCH   1   2
BRANCH   1   7
ATOM      7  CA  ASN A   1      -1.521  -7.986  11.571  0.00  0.00    +0.142 C 
BRANCH   7   8
ATOM      8  N   ASN A   1      -1.794  -9.405  11.292  0.00  0.00    -0.239 NA
ATOM      9  H   ASN A   1      -2.678  -9.661  10.808  0.00  0.00    +0.142 HD
ENDBRANCH   7   8
BRANCH   7  10
ATOM     10  C   ASN A   1      -2.098  -7.582  12.925  0.00  0.00    +0.225 C 
ATOM     11  O   ASN A   1      -2.834  -6.577  13.077  0.00  0.00    -0.287 OA
ENDBRANCH   7  10
ENDBRANCH   1   7
TORSDOF 4
REMARK  Name = ../refined-set-2016/3p5l/3p5l_pocket.pdb
REMARK  141 active torsions:
REMARK  status: ('A' for Active; 'I' for Inactive)
REMARK    1  A    between atoms: _1  and  _3
REMARK    2  A    between atoms: _3  and  _4
REMARK    3  A    between atoms: _3  and  _6
REMARK    4  A    between atoms: _6  and  _7
REMARK    5  A    between atoms: _17  and  _19
REMARK    6  A    between atoms: _19  and  _20
REMARK    7  A    between atoms: _19  and  _22
REMARK    8  A    between atoms: _22  and  _23
REMARK    9  A    between atoms: _28  and  _29
REMARK   10  A    between atoms: _31  and  _33
REMARK   11  A    between atoms: _33  and  _34
REMARK   12  A    between atoms: _33  and  _36
REMARK   13  A    between atoms: _36  and  _37
REMARK   14  A    between atoms: _40  and  _42
REMARK   15  A    between atoms: _42  and  _43
REMARK   16  A    between atoms: _42  and  _45
REMARK   17  A    between atoms: _45  and  _46
REMARK   18  A    between atoms: _51  and  _53
REMARK   19  A    between atoms: _53  and  _54
REMARK   20  A    between atoms: _53  and  _56
REMARK   21  A    between atoms: _56  and  _57
REMARK   22  A    between atoms: _62  and  _64
REMARK   23  A    between atoms: _64  and  _65
REMARK   24  A    between atoms: _68  and  _70
REMARK   25  A    between atoms: _70  and  _71
REMARK   26  A    between atoms: _70  and  _73
REMARK   27  A    between atoms: _73  and  _74
REMARK   28  A    between atoms: _80  and  _82
REMARK   29  A    between atoms: _82  and  _83
REMARK   30  A    between atoms: _82  and  _85
REMARK   31  A    between atoms: _85  and  _86
REMARK   32  A    between atoms: _91  and  _93
REMARK   33  A    between atoms: _93  and  _94
REMARK   34  A    between atoms: _93  and  _96
REMARK   35  A    between atoms: _96  and  _97
REMARK   36  A    between atoms: _100  and  _102
REMARK   37  A    between atoms: _102  and  _103
REMARK   38  A    between atoms: _102  and  _105
REMARK   39  A    between atoms: _105  and  _106
REMARK   40  A    between atoms: _106  and  _107
REMARK   41  A    between atoms: _112  and  _114
REMARK   42  A    between atoms: _114  and  _115
REMARK   43  A    between atoms: _114  and  _117
REMARK   44  A    between atoms: _117  and  _118
REMARK   45  A    between atoms: _124  and  _126
REMARK   46  A    between atoms: _137  and  _140
REMARK   47  A    between atoms: _140  and  _141
REMARK   48  A    between atoms: _149  and  _150
REMARK   49  A    between atoms: _158  and  _160
REMARK   50  A    between atoms: _160  and  _161
REMARK   51  A    between atoms: _160  and  _163
REMARK   52  A    between atoms: _163  and  _164
REMARK   53  A    between atoms: _164  and  _165
REMARK   54  A    between atoms: _168  and  _170
REMARK   55  A    between atoms: _170  and  _171
REMARK   56  A    between atoms: _170  and  _173
REMARK   57  A    between atoms: _173  and  _174
REMARK   58  A    between atoms: _177  and  _179
REMARK   59  A    between atoms: _179  and  _180
REMARK   60  A    between atoms: _179  and  _182
REMARK   61  A    between atoms: _182  and  _183
REMARK   62  A    between atoms: _184  and  ZN_399
REMARK   63  A    between atoms: _188  and  _190
REMARK   64  A    between atoms: _190  and  _191
REMARK   65  A    between atoms: _190  and  _193
REMARK   66  A    between atoms: _193  and  _194
REMARK   67  A    between atoms: _197  and  _199
REMARK   68  A    between atoms: _199  and  _200
REMARK   69  A    between atoms: _199  and  _202
REMARK   70  A    between atoms: _205  and  _207
REMARK   71  A    between atoms: _207  and  _208
REMARK   72  A    between atoms: _207  and  _210
REMARK   73  A    between atoms: _210  and  _211
REMARK   74  A    between atoms: _216  and  _218
REMARK   75  A    between atoms: _218  and  _219
REMARK   76  A    between atoms: _218  and  _221
REMARK   77  A    between atoms: _221  and  _222
REMARK   78  A    between atoms: _228  and  _230
REMARK   79  A    between atoms: _230  and  _231
REMARK   80  A    between atoms: _233  and  _235
REMARK   81  A    between atoms: _235  and  _236
REMARK   82  A    between atoms: _235  and  _238
REMARK   83  A    between atoms: _241  and  _243
REMARK   84  A    between atoms: _243  and  _244
REMARK   85  A    between atoms: _243  and  _246
REMARK   86  A    between atoms: _246  and  _247
REMARK   87  A    between atoms: _250  and  _252
REMARK   88  A    between atoms: _252  and  _253
REMARK   89  A    between atoms: _256  and  _258
REMARK   90  A    between atoms: _258  and  _259
REMARK   91  A    between atoms: _258  and  _261
REMARK   92  A    between atoms: _264  and  _266
REMARK   93  A    between atoms: _266  and  _267
REMARK   94  A    between atoms: _266  and  _269
REMARK   95  A    between atoms: _269  and  _270
REMARK   96  A    between atoms: _273  and  _275
REMARK   97  A    between atoms: _275  and  _276
REMARK   98  A    between atoms: _275  and  _278
REMARK   99  A    between atoms: _278  and  _279
REMARK  100  A    between atoms: _281  and  _283
REMARK  101  A    between atoms: _283  and  _284
REMARK  102  A    between atoms: _283  and  _286
REMARK  103  A    between atoms: _286  and  _287
REMARK  104  A    between atoms: _290  and  _292
REMARK  105  A    between atoms: _292  and  _293
REMARK  106  A    between atoms: _292  and  _295
REMARK  107  A    between atoms: _295  and  _296
REMARK  108  A    between atoms: _299  and  _301
REMARK  109  A    between atoms: _301  and  _302
REMARK  110  A    between atoms: _301  and  _304
REMARK  111  A    between atoms: _304  and  _305
REMARK  112  A    between atoms: _309  and  _310
REMARK  113  A    between atoms: _316  and  _317
REMARK  114  A    between atoms: _322  and  _324
REMARK  115  A    between atoms: _324  and  _325
REMARK  116  A    between atoms: _324  and  _327
REMARK  117  A    between atoms: _327  and  _328
REMARK  118  A    between atoms: _331  and  _333
REMARK  119  A    between atoms: _333  and  _334
REMARK  120  A    between atoms: _333  and  _336
REMARK  121  A    between atoms: _336  and  _337
REMARK  122  A    between atoms: _340  and  _342
REMARK  123  A    between atoms: _342  and  _343
REMARK  124  A    between atoms: _342  and  _345
REMARK  125  A    between atoms: _347  and  _349
REMARK  126  A    between atoms: _349  and  _350
REMARK  127  A    between atoms: _349  and  _352
REMARK  128  A    between atoms: _355  and  _357
REMARK  129  A    between atoms: _357  and  _358
REMARK  130  A    between atoms: _357  and  _360
REMARK  131  A    between atoms: _360  and  _361
REMARK  132  A    between atoms: _371  and  _373
REMARK  133  A    between atoms: _373  and  _374
REMARK  134  A    between atoms: _373  and  _376
REMARK  135  A    between atoms: _376  and  _377
REMARK  136  A    between atoms: _382  and  _384
REMARK  137  A    between atoms: _384  and  _385
REMARK  138  A    between atoms: _384  and  _387
REMARK  139  A    between atoms: _387  and  _388
REMARK  140  A    between atoms: _388  and  _389
REMARK  141  A    between atoms: _389  and  _390
REMARK                            x       y       z     vdW  Elec       q    Type
REMARK                         _______ _______ _______ _____ _____    ______ ____
ROOT
ATOM      1  NE  ARG A   1       2.196  -3.764  21.204  0.00  0.00    -0.265 N 
ATOM      2  CZ  ARG A   1       2.408  -2.754  22.046  0.00  0.00    +0.342 C 
ATOM      3  NH2 ARG A   1       3.661  -2.529  22.487  0.00  0.00    -0.292 N 
ATOM      4 HH21 ARG A   1       3.848  -1.746  23.145  0.00  0.00    +0.255 HD
ATOM      5 HH22 ARG A   1       4.441  -3.139  22.170  0.00  0.00    +0.255 HD
ATOM      6  NH1 ARG A   1       1.403  -1.954  22.418  0.00  0.00    -0.292 N 
ATOM      7 HH11 ARG A   1       1.580  -1.168  23.076  0.00  0.00    +0.255 HD
ATOM      8 HH12 ARG A   1       0.444  -2.118  22.049  0.00  0.00    +0.255 HD
ATOM      9  HE  ARG A   1       3.007  -4.373  20.972  0.00  0.00    +0.259 HD
ENDROOT
BRANCH   1  10
ATOM     10  CD  ARG A   1       0.915  -4.084  20.581  0.00  0.00    +0.174 C 
BRANCH  10  11
ATOM     11  CG  ARG A   1       1.025  -5.439  19.879  0.00  0.00    +0.045 C 
BRANCH  11  12
ATOM     12  CB  ARG A   1      -0.082  -5.686  18.877  0.00  0.00    +0.029 C 
BRANCH  12  13
ATOM     13  CA  ARG A   1      -0.186  -7.142  18.383  0.00  0.00    +0.133 C 
BRANCH  13  14
ATOM     14  N   ARG A   1      -1.101  -7.210  17.258  0.00  0.00    -0.239 NA
ATOM     15  H   ARG A   1      -1.895  -6.538  17.232  0.00  0.00    +0.142 HD
ENDBRANCH  13  14
BRANCH  13  16
ATOM     16  C   ARG A   1      -0.699  -8.030  19.508  0.00  0.00    +0.224 C 
ATOM     17  O   ARG A   1      -1.890  -8.016  19.813  0.00  0.00    -0.287 OA
ENDBRANCH  13  16
ENDBRANCH  12  13
ENDBRANCH  11  12
ENDBRANCH  10  11
ENDBRANCH   1  10
TORSDOF 6
REMARK  Name = ../refined-set-2016/3p5l/3p5l_pocket.pdb
REMARK  141 active torsions:
REMARK  status: ('A' for Active; 'I' for Inactive)
REMARK    1  A    between atoms: _1  and  _3
REMARK    2  A    between atoms: _3  and  _4
REMARK    3  A    between atoms: _3  and  _6
REMARK    4  A    between atoms: _6  and  _7
REMARK    5  A    between atoms: _17  and  _19
REMARK    6  A    between atoms: _19  and  _20
REMARK    7  A    between atoms: _19  and  _22
REMARK    8  A    between atoms: _22  and  _23
REMARK    9  A    between atoms: _28  and  _29
REMARK   10  A    between atoms: _31  and  _33
REMARK   11  A    between atoms: _33  and  _34
REMARK   12  A    between atoms: _33  and  _36
REMARK   13  A    between atoms: _36  and  _37
REMARK   14  A    between atoms: _40  and  _42
REMARK   15  A    between atoms: _42  and  _43
REMARK   16  A    between atoms: _42  and  _45
REMARK   17  A    between atoms: _45  and  _46
REMARK   18  A    between atoms: _51  and  _53
REMARK   19  A    between atoms: _53  and  _54
REMARK   20  A    between atoms: _53  and  _56
REMARK   21  A    between atoms: _56  and  _57
REMARK   22  A    between atoms: _62  and  _64
REMARK   23  A    between atoms: _64  and  _65
REMARK   24  A    between atoms: _68  and  _70
REMARK   25  A    between atoms: _70  and  _71
REMARK   26  A    between atoms: _70  and  _73
REMARK   27  A    between atoms: _73  and  _74
REMARK   28  A    between atoms: _80  and  _82
REMARK   29  A    between atoms: _82  and  _83
REMARK   30  A    between atoms: _82  and  _85
REMARK   31  A    between atoms: _85  and  _86
REMARK   32  A    between atoms: _91  and  _93
REMARK   33  A    between atoms: _93  and  _94
REMARK   34  A    between atoms: _93  and  _96
REMARK   35  A    between atoms: _96  and  _97
REMARK   36  A    between atoms: _100  and  _102
REMARK   37  A    between atoms: _102  and  _103
REMARK   38  A    between atoms: _102  and  _105
REMARK   39  A    between atoms: _105  and  _106
REMARK   40  A    between atoms: _106  and  _107
REMARK   41  A    between atoms: _112  and  _114
REMARK   42  A    between atoms: _114  and  _115
REMARK   43  A    between atoms: _114  and  _117
REMARK   44  A    between atoms: _117  and  _118
REMARK   45  A    between atoms: _124  and  _126
REMARK   46  A    between atoms: _137  and  _140
REMARK   47  A    between atoms: _140  and  _141
REMARK   48  A    between atoms: _149  and  _150
REMARK   49  A    between atoms: _158  and  _160
REMARK   50  A    between atoms: _160  and  _161
REMARK   51  A    between atoms: _160  and  _163
REMARK   52  A    between atoms: _163  and  _164
REMARK   53  A    between atoms: _164  and  _165
REMARK   54  A    between atoms: _168  and  _170
REMARK   55  A    between atoms: _170  and  _171
REMARK   56  A    between atoms: _170  and  _173
REMARK   57  A    between atoms: _173  and  _174
REMARK   58  A    between atoms: _177  and  _179
REMARK   59  A    between atoms: _179  and  _180
REMARK   60  A    between atoms: _179  and  _182
REMARK   61  A    between atoms: _182  and  _183
REMARK   62  A    between atoms: _184  and  ZN_399
REMARK   63  A    between atoms: _188  and  _190
REMARK   64  A    between atoms: _190  and  _191
REMARK   65  A    between atoms: _190  and  _193
REMARK   66  A    between atoms: _193  and  _194
REMARK   67  A    between atoms: _197  and  _199
REMARK   68  A    between atoms: _199  and  _200
REMARK   69  A    between atoms: _199  and  _202
REMARK   70  A    between atoms: _205  and  _207
REMARK   71  A    between atoms: _207  and  _208
REMARK   72  A    between atoms: _207  and  _210
REMARK   73  A    between atoms: _210  and  _211
REMARK   74  A    between atoms: _216  and  _218
REMARK   75  A    between atoms: _218  and  _219
REMARK   76  A    between atoms: _218  and  _221
REMARK   77  A    between atoms: _221  and  _222
REMARK   78  A    between atoms: _228  and  _230
REMARK   79  A    between atoms: _230  and  _231
REMARK   80  A    between atoms: _233  and  _235
REMARK   81  A    between atoms: _235  and  _236
REMARK   82  A    between atoms: _235  and  _238
REMARK   83  A    between atoms: _241  and  _243
REMARK   84  A    between atoms: _243  and  _244
REMARK   85  A    between atoms: _243  and  _246
REMARK   86  A    between atoms: _246  and  _247
REMARK   87  A    between atoms: _250  and  _252
REMARK   88  A    between atoms: _252  and  _253
REMARK   89  A    between atoms: _256  and  _258
REMARK   90  A    between atoms: _258  and  _259
REMARK   91  A    between atoms: _258  and  _261
REMARK   92  A    between atoms: _264  and  _266
REMARK   93  A    between atoms: _266  and  _267
REMARK   94  A    between atoms: _266  and  _269
REMARK   95  A    between atoms: _269  and  _270
REMARK   96  A    between atoms: _273  and  _275
REMARK   97  A    between atoms: _275  and  _276
REMARK   98  A    between atoms: _275  and  _278
REMARK   99  A    between atoms: _278  and  _279
REMARK  100  A    between atoms: _281  and  _283
REMARK  101  A    between atoms: _283  and  _284
REMARK  102  A    between atoms: _283  and  _286
REMARK  103  A    between atoms: _286  and  _287
REMARK  104  A    between atoms: _290  and  _292
REMARK  105  A    between atoms: _292  and  _293
REMARK  106  A    between atoms: _292  and  _295
REMARK  107  A    between atoms: _295  and  _296
REMARK  108  A    between atoms: _299  and  _301
REMARK  109  A    between atoms: _301  and  _302
REMARK  110  A    between atoms: _301  and  _304
REMARK  111  A    between atoms: _304  and  _305
REMARK  112  A    between atoms: _309  and  _310
REMARK  113  A    between atoms: _316  and  _317
REMARK  114  A    between atoms: _322  and  _324
REMARK  115  A    between atoms: _324  and  _325
REMARK  116  A    between atoms: _324  and  _327
REMARK  117  A    between atoms: _327  and  _328
REMARK  118  A    between atoms: _331  and  _333
REMARK  119  A    between atoms: _333  and  _334
REMARK  120  A    between atoms: _333  and  _336
REMARK  121  A    between atoms: _336  and  _337
REMARK  122  A    between atoms: _340  and  _342
REMARK  123  A    between atoms: _342  and  _343
REMARK  124  A    between atoms: _342  and  _345
REMARK  125  A    between atoms: _347  and  _349
REMARK  126  A    between atoms: _349  and  _350
REMARK  127  A    between atoms: _349  and  _352
REMARK  128  A    between atoms: _355  and  _357
REMARK  129  A    between atoms: _357  and  _358
REMARK  130  A    between atoms: _357  and  _360
REMARK  131  A    between atoms: _360  and  _361
REMARK  132  A    between atoms: _371  and  _373
REMARK  133  A    between atoms: _373  and  _374
REMARK  134  A    between atoms: _373  and  _376
REMARK  135  A    between atoms: _376  and  _377
REMARK  136  A    between atoms: _382  and  _384
REMARK  137  A    between atoms: _384  and  _385
REMARK  138  A    between atoms: _384  and  _387
REMARK  139  A    between atoms: _387  and  _388
REMARK  140  A    between atoms: _388  and  _389
REMARK  141  A    between atoms: _389  and  _390
REMARK                            x       y       z     vdW  Elec       q    Type
REMARK                         _______ _______ _______ _____ _____    ______ ____
ROOT
ATOM      1  O   HOH     1      -1.307  -4.045  15.726  0.00  0.00    +0.000 OA
ENDROOT
TORSDOF 0
REMARK  Name = ../refined-set-2016/3p5l/3p5l_pocket.pdb
REMARK  141 active torsions:
REMARK  status: ('A' for Active; 'I' for Inactive)
REMARK    1  A    between atoms: _1  and  _3
REMARK    2  A    between atoms: _3  and  _4
REMARK    3  A    between atoms: _3  and  _6
REMARK    4  A    between atoms: _6  and  _7
REMARK    5  A    between atoms: _17  and  _19
REMARK    6  A    between atoms: _19  and  _20
REMARK    7  A    between atoms: _19  and  _22
REMARK    8  A    between atoms: _22  and  _23
REMARK    9  A    between atoms: _28  and  _29
REMARK   10  A    between atoms: _31  and  _33
REMARK   11  A    between atoms: _33  and  _34
REMARK   12  A    between atoms: _33  and  _36
REMARK   13  A    between atoms: _36  and  _37
REMARK   14  A    between atoms: _40  and  _42
REMARK   15  A    between atoms: _42  and  _43
REMARK   16  A    between atoms: _42  and  _45
REMARK   17  A    between atoms: _45  and  _46
REMARK   18  A    between atoms: _51  and  _53
REMARK   19  A    between atoms: _53  and  _54
REMARK   20  A    between atoms: _53  and  _56
REMARK   21  A    between atoms: _56  and  _57
REMARK   22  A    between atoms: _62  and  _64
REMARK   23  A    between atoms: _64  and  _65
REMARK   24  A    between atoms: _68  and  _70
REMARK   25  A    between atoms: _70  and  _71
REMARK   26  A    between atoms: _70  and  _73
REMARK   27  A    between atoms: _73  and  _74
REMARK   28  A    between atoms: _80  and  _82
REMARK   29  A    between atoms: _82  and  _83
REMARK   30  A    between atoms: _82  and  _85
REMARK   31  A    between atoms: _85  and  _86
REMARK   32  A    between atoms: _91  and  _93
REMARK   33  A    between atoms: _93  and  _94
REMARK   34  A    between atoms: _93  and  _96
REMARK   35  A    between atoms: _96  and  _97
REMARK   36  A    between atoms: _100  and  _102
REMARK   37  A    between atoms: _102  and  _103
REMARK   38  A    between atoms: _102  and  _105
REMARK   39  A    between atoms: _105  and  _106
REMARK   40  A    between atoms: _106  and  _107
REMARK   41  A    between atoms: _112  and  _114
REMARK   42  A    between atoms: _114  and  _115
REMARK   43  A    between atoms: _114  and  _117
REMARK   44  A    between atoms: _117  and  _118
REMARK   45  A    between atoms: _124  and  _126
REMARK   46  A    between atoms: _137  and  _140
REMARK   47  A    between atoms: _140  and  _141
REMARK   48  A    between atoms: _149  and  _150
REMARK   49  A    between atoms: _158  and  _160
REMARK   50  A    between atoms: _160  and  _161
REMARK   51  A    between atoms: _160  and  _163
REMARK   52  A    between atoms: _163  and  _164
REMARK   53  A    between atoms: _164  and  _165
REMARK   54  A    between atoms: _168  and  _170
REMARK   55  A    between atoms: _170  and  _171
REMARK   56  A    between atoms: _170  and  _173
REMARK   57  A    between atoms: _173  and  _174
REMARK   58  A    between atoms: _177  and  _179
REMARK   59  A    between atoms: _179  and  _180
REMARK   60  A    between atoms: _179  and  _182
REMARK   61  A    between atoms: _182  and  _183
REMARK   62  A    between atoms: _184  and  ZN_399
REMARK   63  A    between atoms: _188  and  _190
REMARK   64  A    between atoms: _190  and  _191
REMARK   65  A    between atoms: _190  and  _193
REMARK   66  A    between atoms: _193  and  _194
REMARK   67  A    between atoms: _197  and  _199
REMARK   68  A    between atoms: _199  and  _200
REMARK   69  A    between atoms: _199  and  _202
REMARK   70  A    between atoms: _205  and  _207
REMARK   71  A    between atoms: _207  and  _208
REMARK   72  A    between atoms: _207  and  _210
REMARK   73  A    between atoms: _210  and  _211
REMARK   74  A    between atoms: _216  and  _218
REMARK   75  A    between atoms: _218  and  _219
REMARK   76  A    between atoms: _218  and  _221
REMARK   77  A    between atoms: _221  and  _222
REMARK   78  A    between atoms: _228  and  _230
REMARK   79  A    between atoms: _230  and  _231
REMARK   80  A    between atoms: _233  and  _235
REMARK   81  A    between atoms: _235  and  _236
REMARK   82  A    between atoms: _235  and  _238
REMARK   83  A    between atoms: _241  and  _243
REMARK   84  A    between atoms: _243  and  _244
REMARK   85  A    between atoms: _243  and  _246
REMARK   86  A    between atoms: _246  and  _247
REMARK   87  A    between atoms: _250  and  _252
REMARK   88  A    between atoms: _252  and  _253
REMARK   89  A    between atoms: _256  and  _258
REMARK   90  A    between atoms: _258  and  _259
REMARK   91  A    between atoms: _258  and  _261
REMARK   92  A    between atoms: _264  and  _266
REMARK   93  A    between atoms: _266  and  _267
REMARK   94  A    between atoms: _266  and  _269
REMARK   95  A    between atoms: _269  and  _270
REMARK   96  A    between atoms: _273  and  _275
REMARK   97  A    between atoms: _275  and  _276
REMARK   98  A    between atoms: _275  and  _278
REMARK   99  A    between atoms: _278  and  _279
REMARK  100  A    between atoms: _281  and  _283
REMARK  101  A    between atoms: _283  and  _284
REMARK  102  A    between atoms: _283  and  _286
REMARK  103  A    between atoms: _286  and  _287
REMARK  104  A    between atoms: _290  and  _292
REMARK  105  A    between atoms: _292  and  _293
REMARK  106  A    between atoms: _292  and  _295
REMARK  107  A    between atoms: _295  and  _296
REMARK  108  A    between atoms: _299  and  _301
REMARK  109  A    between atoms: _301  and  _302
REMARK  110  A    between atoms: _301  and  _304
REMARK  111  A    between atoms: _304  and  _305
REMARK  112  A    between atoms: _309  and  _310
REMARK  113  A    between atoms: _316  and  _317
REMARK  114  A    between atoms: _322  and  _324
REMARK  115  A    between atoms: _324  and  _325
REMARK  116  A    between atoms: _324  and  _327
REMARK  117  A    between atoms: _327  and  _328
REMARK  118  A    between atoms: _331  and  _333
REMARK  119  A    between atoms: _333  and  _334
REMARK  120  A    between atoms: _333  and  _336
REMARK  121  A    between atoms: _336  and  _337
REMARK  122  A    between atoms: _340  and  _342
REMARK  123  A    between atoms: _342  and  _343
REMARK  124  A    between atoms: _342  and  _345
REMARK  125  A    between atoms: _347  and  _349
REMARK  126  A    between atoms: _349  and  _350
REMARK  127  A    between atoms: _349  and  _352
REMARK  128  A    between atoms: _355  and  _357
REMARK  129  A    between atoms: _357  and  _358
REMARK  130  A    between atoms: _357  and  _360
REMARK  131  A    between atoms: _360  and  _361
REMARK  132  A    between atoms: _371  and  _373
REMARK  133  A    between atoms: _373  and  _374
REMARK  134  A    between atoms: _373  and  _376
REMARK  135  A    between atoms: _376  and  _377
REMARK  136  A    between atoms: _382  and  _384
REMARK  137  A    between atoms: _384  and  _385
REMARK  138  A    between atoms: _384  and  _387
REMARK  139  A    between atoms: _387  and  _388
REMARK  140  A    between atoms: _388  and  _389
REMARK  141  A    between atoms: _389  and  _390
REMARK                            x       y       z     vdW  Elec       q    Type
REMARK                         _______ _______ _______ _____ _____    ______ ____
ROOT
ATOM      1  O   HOH     1      -6.996   6.070   6.372  0.00  0.00    +0.000 OA
ENDROOT
TORSDOF 0
REMARK  Name = ../refined-set-2016/3p5l/3p5l_pocket.pdb
REMARK  141 active torsions:
REMARK  status: ('A' for Active; 'I' for Inactive)
REMARK    1  A    between atoms: _1  and  _3
REMARK    2  A    between atoms: _3  and  _4
REMARK    3  A    between atoms: _3  and  _6
REMARK    4  A    between atoms: _6  and  _7
REMARK    5  A    between atoms: _17  and  _19
REMARK    6  A    between atoms: _19  and  _20
REMARK    7  A    between atoms: _19  and  _22
REMARK    8  A    between atoms: _22  and  _23
REMARK    9  A    between atoms: _28  and  _29
REMARK   10  A    between atoms: _31  and  _33
REMARK   11  A    between atoms: _33  and  _34
REMARK   12  A    between atoms: _33  and  _36
REMARK   13  A    between atoms: _36  and  _37
REMARK   14  A    between atoms: _40  and  _42
REMARK   15  A    between atoms: _42  and  _43
REMARK   16  A    between atoms: _42  and  _45
REMARK   17  A    between atoms: _45  and  _46
REMARK   18  A    between atoms: _51  and  _53
REMARK   19  A    between atoms: _53  and  _54
REMARK   20  A    between atoms: _53  and  _56
REMARK   21  A    between atoms: _56  and  _57
REMARK   22  A    between atoms: _62  and  _64
REMARK   23  A    between atoms: _64  and  _65
REMARK   24  A    between atoms: _68  and  _70
REMARK   25  A    between atoms: _70  and  _71
REMARK   26  A    between atoms: _70  and  _73
REMARK   27  A    between atoms: _73  and  _74
REMARK   28  A    between atoms: _80  and  _82
REMARK   29  A    between atoms: _82  and  _83
REMARK   30  A    between atoms: _82  and  _85
REMARK   31  A    between atoms: _85  and  _86
REMARK   32  A    between atoms: _91  and  _93
REMARK   33  A    between atoms: _93  and  _94
REMARK   34  A    between atoms: _93  and  _96
REMARK   35  A    between atoms: _96  and  _97
REMARK   36  A    between atoms: _100  and  _102
REMARK   37  A    between atoms: _102  and  _103
REMARK   38  A    between atoms: _102  and  _105
REMARK   39  A    between atoms: _105  and  _106
REMARK   40  A    between atoms: _106  and  _107
REMARK   41  A    between atoms: _112  and  _114
REMARK   42  A    between atoms: _114  and  _115
REMARK   43  A    between atoms: _114  and  _117
REMARK   44  A    between atoms: _117  and  _118
REMARK   45  A    between atoms: _124  and  _126
REMARK   46  A    between atoms: _137  and  _140
REMARK   47  A    between atoms: _140  and  _141
REMARK   48  A    between atoms: _149  and  _150
REMARK   49  A    between atoms: _158  and  _160
REMARK   50  A    between atoms: _160  and  _161
REMARK   51  A    between atoms: _160  and  _163
REMARK   52  A    between atoms: _163  and  _164
REMARK   53  A    between atoms: _164  and  _165
REMARK   54  A    between atoms: _168  and  _170
REMARK   55  A    between atoms: _170  and  _171
REMARK   56  A    between atoms: _170  and  _173
REMARK   57  A    between atoms: _173  and  _174
REMARK   58  A    between atoms: _177  and  _179
REMARK   59  A    between atoms: _179  and  _180
REMARK   60  A    between atoms: _179  and  _182
REMARK   61  A    between atoms: _182  and  _183
REMARK   62  A    between atoms: _184  and  ZN_399
REMARK   63  A    between atoms: _188  and  _190
REMARK   64  A    between atoms: _190  and  _191
REMARK   65  A    between atoms: _190  and  _193
REMARK   66  A    between atoms: _193  and  _194
REMARK   67  A    between atoms: _197  and  _199
REMARK   68  A    between atoms: _199  and  _200
REMARK   69  A    between atoms: _199  and  _202
REMARK   70  A    between atoms: _205  and  _207
REMARK   71  A    between atoms: _207  and  _208
REMARK   72  A    between atoms: _207  and  _210
REMARK   73  A    between atoms: _210  and  _211
REMARK   74  A    between atoms: _216  and  _218
REMARK   75  A    between atoms: _218  and  _219
REMARK   76  A    between atoms: _218  and  _221
REMARK   77  A    between atoms: _221  and  _222
REMARK   78  A    between atoms: _228  and  _230
REMARK   79  A    between atoms: _230  and  _231
REMARK   80  A    between atoms: _233  and  _235
REMARK   81  A    between atoms: _235  and  _236
REMARK   82  A    between atoms: _235  and  _238
REMARK   83  A    between atoms: _241  and  _243
REMARK   84  A    between atoms: _243  and  _244
REMARK   85  A    between atoms: _243  and  _246
REMARK   86  A    between atoms: _246  and  _247
REMARK   87  A    between atoms: _250  and  _252
REMARK   88  A    between atoms: _252  and  _253
REMARK   89  A    between atoms: _256  and  _258
REMARK   90  A    between atoms: _258  and  _259
REMARK   91  A    between atoms: _258  and  _261
REMARK   92  A    between atoms: _264  and  _266
REMARK   93  A    between atoms: _266  and  _267
REMARK   94  A    between atoms: _266  and  _269
REMARK   95  A    between atoms: _269  and  _270
REMARK   96  A    between atoms: _273  and  _275
REMARK   97  A    between atoms: _275  and  _276
REMARK   98  A    between atoms: _275  and  _278
REMARK   99  A    between atoms: _278  and  _279
REMARK  100  A    between atoms: _281  and  _283
REMARK  101  A    between atoms: _283  and  _284
REMARK  102  A    between atoms: _283  and  _286
REMARK  103  A    between atoms: _286  and  _287
REMARK  104  A    between atoms: _290  and  _292
REMARK  105  A    between atoms: _292  and  _293
REMARK  106  A    between atoms: _292  and  _295
REMARK  107  A    between atoms: _295  and  _296
REMARK  108  A    between atoms: _299  and  _301
REMARK  109  A    between atoms: _301  and  _302
REMARK  110  A    between atoms: _301  and  _304
REMARK  111  A    between atoms: _304  and  _305
REMARK  112  A    between atoms: _309  and  _310
REMARK  113  A    between atoms: _316  and  _317
REMARK  114  A    between atoms: _322  and  _324
REMARK  115  A    between atoms: _324  and  _325
REMARK  116  A    between atoms: _324  and  _327
REMARK  117  A    between atoms: _327  and  _328
REMARK  118  A    between atoms: _331  and  _333
REMARK  119  A    between atoms: _333  and  _334
REMARK  120  A    between atoms: _333  and  _336
REMARK  121  A    between atoms: _336  and  _337
REMARK  122  A    between atoms: _340  and  _342
REMARK  123  A    between atoms: _342  and  _343
REMARK  124  A    between atoms: _342  and  _345
REMARK  125  A    between atoms: _347  and  _349
REMARK  126  A    between atoms: _349  and  _350
REMARK  127  A    between atoms: _349  and  _352
REMARK  128  A    between atoms: _355  and  _357
REMARK  129  A    between atoms: _357  and  _358
REMARK  130  A    between atoms: _357  and  _360
REMARK  131  A    between atoms: _360  and  _361
REMARK  132  A    between atoms: _371  and  _373
REMARK  133  A    between atoms: _373  and  _374
REMARK  134  A    between atoms: _373  and  _376
REMARK  135  A    between atoms: _376  and  _377
REMARK  136  A    between atoms: _382  and  _384
REMARK  137  A    between atoms: _384  and  _385
REMARK  138  A    between atoms: _384  and  _387
REMARK  139  A    between atoms: _387  and  _388
REMARK  140  A    between atoms: _388  and  _389
REMARK  141  A    between atoms: _389  and  _390
REMARK                            x       y       z     vdW  Elec       q    Type
REMARK                         _______ _______ _______ _____ _____    ______ ____
ROOT
ATOM      1  O   HOH     1      -8.234   7.877   8.256  0.00  0.00    +0.000 OA
ENDROOT
TORSDOF 0
REMARK  Name = ../refined-set-2016/3p5l/3p5l_pocket.pdb
REMARK  141 active torsions:
REMARK  status: ('A' for Active; 'I' for Inactive)
REMARK    1  A    between atoms: _1  and  _3
REMARK    2  A    between atoms: _3  and  _4
REMARK    3  A    between atoms: _3  and  _6
REMARK    4  A    between atoms: _6  and  _7
REMARK    5  A    between atoms: _17  and  _19
REMARK    6  A    between atoms: _19  and  _20
REMARK    7  A    between atoms: _19  and  _22
REMARK    8  A    between atoms: _22  and  _23
REMARK    9  A    between atoms: _28  and  _29
REMARK   10  A    between atoms: _31  and  _33
REMARK   11  A    between atoms: _33  and  _34
REMARK   12  A    between atoms: _33  and  _36
REMARK   13  A    between atoms: _36  and  _37
REMARK   14  A    between atoms: _40  and  _42
REMARK   15  A    between atoms: _42  and  _43
REMARK   16  A    between atoms: _42  and  _45
REMARK   17  A    between atoms: _45  and  _46
REMARK   18  A    between atoms: _51  and  _53
REMARK   19  A    between atoms: _53  and  _54
REMARK   20  A    between atoms: _53  and  _56
REMARK   21  A    between atoms: _56  and  _57
REMARK   22  A    between atoms: _62  and  _64
REMARK   23  A    between atoms: _64  and  _65
REMARK   24  A    between atoms: _68  and  _70
REMARK   25  A    between atoms: _70  and  _71
REMARK   26  A    between atoms: _70  and  _73
REMARK   27  A    between atoms: _73  and  _74
REMARK   28  A    between atoms: _80  and  _82
REMARK   29  A    between atoms: _82  and  _83
REMARK   30  A    between atoms: _82  and  _85
REMARK   31  A    between atoms: _85  and  _86
REMARK   32  A    between atoms: _91  and  _93
REMARK   33  A    between atoms: _93  and  _94
REMARK   34  A    between atoms: _93  and  _96
REMARK   35  A    between atoms: _96  and  _97
REMARK   36  A    between atoms: _100  and  _102
REMARK   37  A    between atoms: _102  and  _103
REMARK   38  A    between atoms: _102  and  _105
REMARK   39  A    between atoms: _105  and  _106
REMARK   40  A    between atoms: _106  and  _107
REMARK   41  A    between atoms: _112  and  _114
REMARK   42  A    between atoms: _114  and  _115
REMARK   43  A    between atoms: _114  and  _117
REMARK   44  A    between atoms: _117  and  _118
REMARK   45  A    between atoms: _124  and  _126
REMARK   46  A    between atoms: _137  and  _140
REMARK   47  A    between atoms: _140  and  _141
REMARK   48  A    between atoms: _149  and  _150
REMARK   49  A    between atoms: _158  and  _160
REMARK   50  A    between atoms: _160  and  _161
REMARK   51  A    between atoms: _160  and  _163
REMARK   52  A    between atoms: _163  and  _164
REMARK   53  A    between atoms: _164  and  _165
REMARK   54  A    between atoms: _168  and  _170
REMARK   55  A    between atoms: _170  and  _171
REMARK   56  A    between atoms: _170  and  _173
REMARK   57  A    between atoms: _173  and  _174
REMARK   58  A    between atoms: _177  and  _179
REMARK   59  A    between atoms: _179  and  _180
REMARK   60  A    between atoms: _179  and  _182
REMARK   61  A    between atoms: _182  and  _183
REMARK   62  A    between atoms: _184  and  ZN_399
REMARK   63  A    between atoms: _188  and  _190
REMARK   64  A    between atoms: _190  and  _191
REMARK   65  A    between atoms: _190  and  _193
REMARK   66  A    between atoms: _193  and  _194
REMARK   67  A    between atoms: _197  and  _199
REMARK   68  A    between atoms: _199  and  _200
REMARK   69  A    between atoms: _199  and  _202
REMARK   70  A    between atoms: _205  and  _207
REMARK   71  A    between atoms: _207  and  _208
REMARK   72  A    between atoms: _207  and  _210
REMARK   73  A    between atoms: _210  and  _211
REMARK   74  A    between atoms: _216  and  _218
REMARK   75  A    between atoms: _218  and  _219
REMARK   76  A    between atoms: _218  and  _221
REMARK   77  A    between atoms: _221  and  _222
REMARK   78  A    between atoms: _228  and  _230
REMARK   79  A    between atoms: _230  and  _231
REMARK   80  A    between atoms: _233  and  _235
REMARK   81  A    between atoms: _235  and  _236
REMARK   82  A    between atoms: _235  and  _238
REMARK   83  A    between atoms: _241  and  _243
REMARK   84  A    between atoms: _243  and  _244
REMARK   85  A    between atoms: _243  and  _246
REMARK   86  A    between atoms: _246  and  _247
REMARK   87  A    between atoms: _250  and  _252
REMARK   88  A    between atoms: _252  and  _253
REMARK   89  A    between atoms: _256  and  _258
REMARK   90  A    between atoms: _258  and  _259
REMARK   91  A    between atoms: _258  and  _261
REMARK   92  A    between atoms: _264  and  _266
REMARK   93  A    between atoms: _266  and  _267
REMARK   94  A    between atoms: _266  and  _269
REMARK   95  A    between atoms: _269  and  _270
REMARK   96  A    between atoms: _273  and  _275
REMARK   97  A    between atoms: _275  and  _276
REMARK   98  A    between atoms: _275  and  _278
REMARK   99  A    between atoms: _278  and  _279
REMARK  100  A    between atoms: _281  and  _283
REMARK  101  A    between atoms: _283  and  _284
REMARK  102  A    between atoms: _283  and  _286
REMARK  103  A    between atoms: _286  and  _287
REMARK  104  A    between atoms: _290  and  _292
REMARK  105  A    between atoms: _292  and  _293
REMARK  106  A    between atoms: _292  and  _295
REMARK  107  A    between atoms: _295  and  _296
REMARK  108  A    between atoms: _299  and  _301
REMARK  109  A    between atoms: _301  and  _302
REMARK  110  A    between atoms: _301  and  _304
REMARK  111  A    between atoms: _304  and  _305
REMARK  112  A    between atoms: _309  and  _310
REMARK  113  A    between atoms: _316  and  _317
REMARK  114  A    between atoms: _322  and  _324
REMARK  115  A    between atoms: _324  and  _325
REMARK  116  A    between atoms: _324  and  _327
REMARK  117  A    between atoms: _327  and  _328
REMARK  118  A    between atoms: _331  and  _333
REMARK  119  A    between atoms: _333  and  _334
REMARK  120  A    between atoms: _333  and  _336
REMARK  121  A    between atoms: _336  and  _337
REMARK  122  A    between atoms: _340  and  _342
REMARK  123  A    between atoms: _342  and  _343
REMARK  124  A    between atoms: _342  and  _345
REMARK  125  A    between atoms: _347  and  _349
REMARK  126  A    between atoms: _349  and  _350
REMARK  127  A    between atoms: _349  and  _352
REMARK  128  A    between atoms: _355  and  _357
REMARK  129  A    between atoms: _357  and  _358
REMARK  130  A    between atoms: _357  and  _360
REMARK  131  A    between atoms: _360  and  _361
REMARK  132  A    between atoms: _371  and  _373
REMARK  133  A    between atoms: _373  and  _374
REMARK  134  A    between atoms: _373  and  _376
REMARK  135  A    between atoms: _376  and  _377
REMARK  136  A    between atoms: _382  and  _384
REMARK  137  A    between atoms: _384  and  _385
REMARK  138  A    between atoms: _384  and  _387
REMARK  139  A    between atoms: _387  and  _388
REMARK  140  A    between atoms: _388  and  _389
REMARK  141  A    between atoms: _389  and  _390
REMARK                            x       y       z     vdW  Elec       q    Type
REMARK                         _______ _______ _______ _____ _____    ______ ____
ROOT
ATOM      1  O   HOH     1      -5.372   1.178  10.452  0.00  0.00    +0.000 OA
ENDROOT
TORSDOF 0
REMARK  Name = ../refined-set-2016/3p5l/3p5l_pocket.pdb
REMARK  141 active torsions:
REMARK  status: ('A' for Active; 'I' for Inactive)
REMARK    1  A    between atoms: _1  and  _3
REMARK    2  A    between atoms: _3  and  _4
REMARK    3  A    between atoms: _3  and  _6
REMARK    4  A    between atoms: _6  and  _7
REMARK    5  A    between atoms: _17  and  _19
REMARK    6  A    between atoms: _19  and  _20
REMARK    7  A    between atoms: _19  and  _22
REMARK    8  A    between atoms: _22  and  _23
REMARK    9  A    between atoms: _28  and  _29
REMARK   10  A    between atoms: _31  and  _33
REMARK   11  A    between atoms: _33  and  _34
REMARK   12  A    between atoms: _33  and  _36
REMARK   13  A    between atoms: _36  and  _37
REMARK   14  A    between atoms: _40  and  _42
REMARK   15  A    between atoms: _42  and  _43
REMARK   16  A    between atoms: _42  and  _45
REMARK   17  A    between atoms: _45  and  _46
REMARK   18  A    between atoms: _51  and  _53
REMARK   19  A    between atoms: _53  and  _54
REMARK   20  A    between atoms: _53  and  _56
REMARK   21  A    between atoms: _56  and  _57
REMARK   22  A    between atoms: _62  and  _64
REMARK   23  A    between atoms: _64  and  _65
REMARK   24  A    between atoms: _68  and  _70
REMARK   25  A    between atoms: _70  and  _71
REMARK   26  A    between atoms: _70  and  _73
REMARK   27  A    between atoms: _73  and  _74
REMARK   28  A    between atoms: _80  and  _82
REMARK   29  A    between atoms: _82  and  _83
REMARK   30  A    between atoms: _82  and  _85
REMARK   31  A    between atoms: _85  and  _86
REMARK   32  A    between atoms: _91  and  _93
REMARK   33  A    between atoms: _93  and  _94
REMARK   34  A    between atoms: _93  and  _96
REMARK   35  A    between atoms: _96  and  _97
REMARK   36  A    between atoms: _100  and  _102
REMARK   37  A    between atoms: _102  and  _103
REMARK   38  A    between atoms: _102  and  _105
REMARK   39  A    between atoms: _105  and  _106
REMARK   40  A    between atoms: _106  and  _107
REMARK   41  A    between atoms: _112  and  _114
REMARK   42  A    between atoms: _114  and  _115
REMARK   43  A    between atoms: _114  and  _117
REMARK   44  A    between atoms: _117  and  _118
REMARK   45  A    between atoms: _124  and  _126
REMARK   46  A    between atoms: _137  and  _140
REMARK   47  A    between atoms: _140  and  _141
REMARK   48  A    between atoms: _149  and  _150
REMARK   49  A    between atoms: _158  and  _160
REMARK   50  A    between atoms: _160  and  _161
REMARK   51  A    between atoms: _160  and  _163
REMARK   52  A    between atoms: _163  and  _164
REMARK   53  A    between atoms: _164  and  _165
REMARK   54  A    between atoms: _168  and  _170
REMARK   55  A    between atoms: _170  and  _171
REMARK   56  A    between atoms: _170  and  _173
REMARK   57  A    between atoms: _173  and  _174
REMARK   58  A    between atoms: _177  and  _179
REMARK   59  A    between atoms: _179  and  _180
REMARK   60  A    between atoms: _179  and  _182
REMARK   61  A    between atoms: _182  and  _183
REMARK   62  A    between atoms: _184  and  ZN_399
REMARK   63  A    between atoms: _188  and  _190
REMARK   64  A    between atoms: _190  and  _191
REMARK   65  A    between atoms: _190  and  _193
REMARK   66  A    between atoms: _193  and  _194
REMARK   67  A    between atoms: _197  and  _199
REMARK   68  A    between atoms: _199  and  _200
REMARK   69  A    between atoms: _199  and  _202
REMARK   70  A    between atoms: _205  and  _207
REMARK   71  A    between atoms: _207  and  _208
REMARK   72  A    between atoms: _207  and  _210
REMARK   73  A    between atoms: _210  and  _211
REMARK   74  A    between atoms: _216  and  _218
REMARK   75  A    between atoms: _218  and  _219
REMARK   76  A    between atoms: _218  and  _221
REMARK   77  A    between atoms: _221  and  _222
REMARK   78  A    between atoms: _228  and  _230
REMARK   79  A    between atoms: _230  and  _231
REMARK   80  A    between atoms: _233  and  _235
REMARK   81  A    between atoms: _235  and  _236
REMARK   82  A    between atoms: _235  and  _238
REMARK   83  A    between atoms: _241  and  _243
REMARK   84  A    between atoms: _243  and  _244
REMARK   85  A    between atoms: _243  and  _246
REMARK   86  A    between atoms: _246  and  _247
REMARK   87  A    between atoms: _250  and  _252
REMARK   88  A    between atoms: _252  and  _253
REMARK   89  A    between atoms: _256  and  _258
REMARK   90  A    between atoms: _258  and  _259
REMARK   91  A    between atoms: _258  and  _261
REMARK   92  A    between atoms: _264  and  _266
REMARK   93  A    between atoms: _266  and  _267
REMARK   94  A    between atoms: _266  and  _269
REMARK   95  A    between atoms: _269  and  _270
REMARK   96  A    between atoms: _273  and  _275
REMARK   97  A    between atoms: _275  and  _276
REMARK   98  A    between atoms: _275  and  _278
REMARK   99  A    between atoms: _278  and  _279
REMARK  100  A    between atoms: _281  and  _283
REMARK  101  A    between atoms: _283  and  _284
REMARK  102  A    between atoms: _283  and  _286
REMARK  103  A    between atoms: _286  and  _287
REMARK  104  A    between atoms: _290  and  _292
REMARK  105  A    between atoms: _292  and  _293
REMARK  106  A    between atoms: _292  and  _295
REMARK  107  A    between atoms: _295  and  _296
REMARK  108  A    between atoms: _299  and  _301
REMARK  109  A    between atoms: _301  and  _302
REMARK  110  A    between atoms: _301  and  _304
REMARK  111  A    between atoms: _304  and  _305
REMARK  112  A    between atoms: _309  and  _310
REMARK  113  A    between atoms: _316  and  _317
REMARK  114  A    between atoms: _322  and  _324
REMARK  115  A    between atoms: _324  and  _325
REMARK  116  A    between atoms: _324  and  _327
REMARK  117  A    between atoms: _327  and  _328
REMARK  118  A    between atoms: _331  and  _333
REMARK  119  A    between atoms: _333  and  _334
REMARK  120  A    between atoms: _333  and  _336
REMARK  121  A    between atoms: _336  and  _337
REMARK  122  A    between atoms: _340  and  _342
REMARK  123  A    between atoms: _342  and  _343
REMARK  124  A    between atoms: _342  and  _345
REMARK  125  A    between atoms: _347  and  _349
REMARK  126  A    between atoms: _349  and  _350
REMARK  127  A    between atoms: _349  and  _352
REMARK  128  A    between atoms: _355  and  _357
REMARK  129  A    between atoms: _357  and  _358
REMARK  130  A    between atoms: _357  and  _360
REMARK  131  A    between atoms: _360  and  _361
REMARK  132  A    between atoms: _371  and  _373
REMARK  133  A    between atoms: _373  and  _374
REMARK  134  A    between atoms: _373  and  _376
REMARK  135  A    between atoms: _376  and  _377
REMARK  136  A    between atoms: _382  and  _384
REMARK  137  A    between atoms: _384  and  _385
REMARK  138  A    between atoms: _384  and  _387
REMARK  139  A    between atoms: _387  and  _388
REMARK  140  A    between atoms: _388  and  _389
REMARK  141  A    between atoms: _389  and  _390
REMARK                            x       y       z     vdW  Elec       q    Type
REMARK                         _______ _______ _______ _____ _____    ______ ____
ROOT
ATOM      1  O   HOH     1      -2.585  -2.995  11.473  0.00  0.00    +0.000 OA
ENDROOT
TORSDOF 0
REMARK  Name = ../refined-set-2016/3p5l/3p5l_pocket.pdb
REMARK  141 active torsions:
REMARK  status: ('A' for Active; 'I' for Inactive)
REMARK    1  A    between atoms: _1  and  _3
REMARK    2  A    between atoms: _3  and  _4
REMARK    3  A    between atoms: _3  and  _6
REMARK    4  A    between atoms: _6  and  _7
REMARK    5  A    between atoms: _17  and  _19
REMARK    6  A    between atoms: _19  and  _20
REMARK    7  A    between atoms: _19  and  _22
REMARK    8  A    between atoms: _22  and  _23
REMARK    9  A    between atoms: _28  and  _29
REMARK   10  A    between atoms: _31  and  _33
REMARK   11  A    between atoms: _33  and  _34
REMARK   12  A    between atoms: _33  and  _36
REMARK   13  A    between atoms: _36  and  _37
REMARK   14  A    between atoms: _40  and  _42
REMARK   15  A    between atoms: _42  and  _43
REMARK   16  A    between atoms: _42  and  _45
REMARK   17  A    between atoms: _45  and  _46
REMARK   18  A    between atoms: _51  and  _53
REMARK   19  A    between atoms: _53  and  _54
REMARK   20  A    between atoms: _53  and  _56
REMARK   21  A    between atoms: _56  and  _57
REMARK   22  A    between atoms: _62  and  _64
REMARK   23  A    between atoms: _64  and  _65
REMARK   24  A    between atoms: _68  and  _70
REMARK   25  A    between atoms: _70  and  _71
REMARK   26  A    between atoms: _70  and  _73
REMARK   27  A    between atoms: _73  and  _74
REMARK   28  A    between atoms: _80  and  _82
REMARK   29  A    between atoms: _82  and  _83
REMARK   30  A    between atoms: _82  and  _85
REMARK   31  A    between atoms: _85  and  _86
REMARK   32  A    between atoms: _91  and  _93
REMARK   33  A    between atoms: _93  and  _94
REMARK   34  A    between atoms: _93  and  _96
REMARK   35  A    between atoms: _96  and  _97
REMARK   36  A    between atoms: _100  and  _102
REMARK   37  A    between atoms: _102  and  _103
REMARK   38  A    between atoms: _102  and  _105
REMARK   39  A    between atoms: _105  and  _106
REMARK   40  A    between atoms: _106  and  _107
REMARK   41  A    between atoms: _112  and  _114
REMARK   42  A    between atoms: _114  and  _115
REMARK   43  A    between atoms: _114  and  _117
REMARK   44  A    between atoms: _117  and  _118
REMARK   45  A    between atoms: _124  and  _126
REMARK   46  A    between atoms: _137  and  _140
REMARK   47  A    between atoms: _140  and  _141
REMARK   48  A    between atoms: _149  and  _150
REMARK   49  A    between atoms: _158  and  _160
REMARK   50  A    between atoms: _160  and  _161
REMARK   51  A    between atoms: _160  and  _163
REMARK   52  A    between atoms: _163  and  _164
REMARK   53  A    between atoms: _164  and  _165
REMARK   54  A    between atoms: _168  and  _170
REMARK   55  A    between atoms: _170  and  _171
REMARK   56  A    between atoms: _170  and  _173
REMARK   57  A    between atoms: _173  and  _174
REMARK   58  A    between atoms: _177  and  _179
REMARK   59  A    between atoms: _179  and  _180
REMARK   60  A    between atoms: _179  and  _182
REMARK   61  A    between atoms: _182  and  _183
REMARK   62  A    between atoms: _184  and  ZN_399
REMARK   63  A    between atoms: _188  and  _190
REMARK   64  A    between atoms: _190  and  _191
REMARK   65  A    between atoms: _190  and  _193
REMARK   66  A    between atoms: _193  and  _194
REMARK   67  A    between atoms: _197  and  _199
REMARK   68  A    between atoms: _199  and  _200
REMARK   69  A    between atoms: _199  and  _202
REMARK   70  A    between atoms: _205  and  _207
REMARK   71  A    between atoms: _207  and  _208
REMARK   72  A    between atoms: _207  and  _210
REMARK   73  A    between atoms: _210  and  _211
REMARK   74  A    between atoms: _216  and  _218
REMARK   75  A    between atoms: _218  and  _219
REMARK   76  A    between atoms: _218  and  _221
REMARK   77  A    between atoms: _221  and  _222
REMARK   78  A    between atoms: _228  and  _230
REMARK   79  A    between atoms: _230  and  _231
REMARK   80  A    between atoms: _233  and  _235
REMARK   81  A    between atoms: _235  and  _236
REMARK   82  A    between atoms: _235  and  _238
REMARK   83  A    between atoms: _241  and  _243
REMARK   84  A    between atoms: _243  and  _244
REMARK   85  A    between atoms: _243  and  _246
REMARK   86  A    between atoms: _246  and  _247
REMARK   87  A    between atoms: _250  and  _252
REMARK   88  A    between atoms: _252  and  _253
REMARK   89  A    between atoms: _256  and  _258
REMARK   90  A    between atoms: _258  and  _259
REMARK   91  A    between atoms: _258  and  _261
REMARK   92  A    between atoms: _264  and  _266
REMARK   93  A    between atoms: _266  and  _267
REMARK   94  A    between atoms: _266  and  _269
REMARK   95  A    between atoms: _269  and  _270
REMARK   96  A    between atoms: _273  and  _275
REMARK   97  A    between atoms: _275  and  _276
REMARK   98  A    between atoms: _275  and  _278
REMARK   99  A    between atoms: _278  and  _279
REMARK  100  A    between atoms: _281  and  _283
REMARK  101  A    between atoms: _283  and  _284
REMARK  102  A    between atoms: _283  and  _286
REMARK  103  A    between atoms: _286  and  _287
REMARK  104  A    between atoms: _290  and  _292
REMARK  105  A    between atoms: _292  and  _293
REMARK  106  A    between atoms: _292  and  _295
REMARK  107  A    between atoms: _295  and  _296
REMARK  108  A    between atoms: _299  and  _301
REMARK  109  A    between atoms: _301  and  _302
REMARK  110  A    between atoms: _301  and  _304
REMARK  111  A    between atoms: _304  and  _305
REMARK  112  A    between atoms: _309  and  _310
REMARK  113  A    between atoms: _316  and  _317
REMARK  114  A    between atoms: _322  and  _324
REMARK  115  A    between atoms: _324  and  _325
REMARK  116  A    between atoms: _324  and  _327
REMARK  117  A    between atoms: _327  and  _328
REMARK  118  A    between atoms: _331  and  _333
REMARK  119  A    between atoms: _333  and  _334
REMARK  120  A    between atoms: _333  and  _336
REMARK  121  A    between atoms: _336  and  _337
REMARK  122  A    between atoms: _340  and  _342
REMARK  123  A    between atoms: _342  and  _343
REMARK  124  A    between atoms: _342  and  _345
REMARK  125  A    between atoms: _347  and  _349
REMARK  126  A    between atoms: _349  and  _350
REMARK  127  A    between atoms: _349  and  _352
REMARK  128  A    between atoms: _355  and  _357
REMARK  129  A    between atoms: _357  and  _358
REMARK  130  A    between atoms: _357  and  _360
REMARK  131  A    between atoms: _360  and  _361
REMARK  132  A    between atoms: _371  and  _373
REMARK  133  A    between atoms: _373  and  _374
REMARK  134  A    between atoms: _373  and  _376
REMARK  135  A    between atoms: _376  and  _377
REMARK  136  A    between atoms: _382  and  _384
REMARK  137  A    between atoms: _384  and  _385
REMARK  138  A    between atoms: _384  and  _387
REMARK  139  A    between atoms: _387  and  _388
REMARK  140  A    between atoms: _388  and  _389
REMARK  141  A    between atoms: _389  and  _390
REMARK                            x       y       z     vdW  Elec       q    Type
REMARK                         _______ _______ _______ _____ _____    ______ ____
ROOT
ATOM      1  O   HOH     1      -4.178  -0.618  11.894  0.00  0.00    +0.000 OA
ENDROOT
TORSDOF 0
REMARK  Name = ../refined-set-2016/3p5l/3p5l_pocket.pdb
REMARK  141 active torsions:
REMARK  status: ('A' for Active; 'I' for Inactive)
REMARK    1  A    between atoms: _1  and  _3
REMARK    2  A    between atoms: _3  and  _4
REMARK    3  A    between atoms: _3  and  _6
REMARK    4  A    between atoms: _6  and  _7
REMARK    5  A    between atoms: _17  and  _19
REMARK    6  A    between atoms: _19  and  _20
REMARK    7  A    between atoms: _19  and  _22
REMARK    8  A    between atoms: _22  and  _23
REMARK    9  A    between atoms: _28  and  _29
REMARK   10  A    between atoms: _31  and  _33
REMARK   11  A    between atoms: _33  and  _34
REMARK   12  A    between atoms: _33  and  _36
REMARK   13  A    between atoms: _36  and  _37
REMARK   14  A    between atoms: _40  and  _42
REMARK   15  A    between atoms: _42  and  _43
REMARK   16  A    between atoms: _42  and  _45
REMARK   17  A    between atoms: _45  and  _46
REMARK   18  A    between atoms: _51  and  _53
REMARK   19  A    between atoms: _53  and  _54
REMARK   20  A    between atoms: _53  and  _56
REMARK   21  A    between atoms: _56  and  _57
REMARK   22  A    between atoms: _62  and  _64
REMARK   23  A    between atoms: _64  and  _65
REMARK   24  A    between atoms: _68  and  _70
REMARK   25  A    between atoms: _70  and  _71
REMARK   26  A    between atoms: _70  and  _73
REMARK   27  A    between atoms: _73  and  _74
REMARK   28  A    between atoms: _80  and  _82
REMARK   29  A    between atoms: _82  and  _83
REMARK   30  A    between atoms: _82  and  _85
REMARK   31  A    between atoms: _85  and  _86
REMARK   32  A    between atoms: _91  and  _93
REMARK   33  A    between atoms: _93  and  _94
REMARK   34  A    between atoms: _93  and  _96
REMARK   35  A    between atoms: _96  and  _97
REMARK   36  A    between atoms: _100  and  _102
REMARK   37  A    between atoms: _102  and  _103
REMARK   38  A    between atoms: _102  and  _105
REMARK   39  A    between atoms: _105  and  _106
REMARK   40  A    between atoms: _106  and  _107
REMARK   41  A    between atoms: _112  and  _114
REMARK   42  A    between atoms: _114  and  _115
REMARK   43  A    between atoms: _114  and  _117
REMARK   44  A    between atoms: _117  and  _118
REMARK   45  A    between atoms: _124  and  _126
REMARK   46  A    between atoms: _137  and  _140
REMARK   47  A    between atoms: _140  and  _141
REMARK   48  A    between atoms: _149  and  _150
REMARK   49  A    between atoms: _158  and  _160
REMARK   50  A    between atoms: _160  and  _161
REMARK   51  A    between atoms: _160  and  _163
REMARK   52  A    between atoms: _163  and  _164
REMARK   53  A    between atoms: _164  and  _165
REMARK   54  A    between atoms: _168  and  _170
REMARK   55  A    between atoms: _170  and  _171
REMARK   56  A    between atoms: _170  and  _173
REMARK   57  A    between atoms: _173  and  _174
REMARK   58  A    between atoms: _177  and  _179
REMARK   59  A    between atoms: _179  and  _180
REMARK   60  A    between atoms: _179  and  _182
REMARK   61  A    between atoms: _182  and  _183
REMARK   62  A    between atoms: _184  and  ZN_399
REMARK   63  A    between atoms: _188  and  _190
REMARK   64  A    between atoms: _190  and  _191
REMARK   65  A    between atoms: _190  and  _193
REMARK   66  A    between atoms: _193  and  _194
REMARK   67  A    between atoms: _197  and  _199
REMARK   68  A    between atoms: _199  and  _200
REMARK   69  A    between atoms: _199  and  _202
REMARK   70  A    between atoms: _205  and  _207
REMARK   71  A    between atoms: _207  and  _208
REMARK   72  A    between atoms: _207  and  _210
REMARK   73  A    between atoms: _210  and  _211
REMARK   74  A    between atoms: _216  and  _218
REMARK   75  A    between atoms: _218  and  _219
REMARK   76  A    between atoms: _218  and  _221
REMARK   77  A    between atoms: _221  and  _222
REMARK   78  A    between atoms: _228  and  _230
REMARK   79  A    between atoms: _230  and  _231
REMARK   80  A    between atoms: _233  and  _235
REMARK   81  A    between atoms: _235  and  _236
REMARK   82  A    between atoms: _235  and  _238
REMARK   83  A    between atoms: _241  and  _243
REMARK   84  A    between atoms: _243  and  _244
REMARK   85  A    between atoms: _243  and  _246
REMARK   86  A    between atoms: _246  and  _247
REMARK   87  A    between atoms: _250  and  _252
REMARK   88  A    between atoms: _252  and  _253
REMARK   89  A    between atoms: _256  and  _258
REMARK   90  A    between atoms: _258  and  _259
REMARK   91  A    between atoms: _258  and  _261
REMARK   92  A    between atoms: _264  and  _266
REMARK   93  A    between atoms: _266  and  _267
REMARK   94  A    between atoms: _266  and  _269
REMARK   95  A    between atoms: _269  and  _270
REMARK   96  A    between atoms: _273  and  _275
REMARK   97  A    between atoms: _275  and  _276
REMARK   98  A    between atoms: _275  and  _278
REMARK   99  A    between atoms: _278  and  _279
REMARK  100  A    between atoms: _281  and  _283
REMARK  101  A    between atoms: _283  and  _284
REMARK  102  A    between atoms: _283  and  _286
REMARK  103  A    between atoms: _286  and  _287
REMARK  104  A    between atoms: _290  and  _292
REMARK  105  A    between atoms: _292  and  _293
REMARK  106  A    between atoms: _292  and  _295
REMARK  107  A    between atoms: _295  and  _296
REMARK  108  A    between atoms: _299  and  _301
REMARK  109  A    between atoms: _301  and  _302
REMARK  110  A    between atoms: _301  and  _304
REMARK  111  A    between atoms: _304  and  _305
REMARK  112  A    between atoms: _309  and  _310
REMARK  113  A    between atoms: _316  and  _317
REMARK  114  A    between atoms: _322  and  _324
REMARK  115  A    between atoms: _324  and  _325
REMARK  116  A    between atoms: _324  and  _327
REMARK  117  A    between atoms: _327  and  _328
REMARK  118  A    between atoms: _331  and  _333
REMARK  119  A    between atoms: _333  and  _334
REMARK  120  A    between atoms: _333  and  _336
REMARK  121  A    between atoms: _336  and  _337
REMARK  122  A    between atoms: _340  and  _342
REMARK  123  A    between atoms: _342  and  _343
REMARK  124  A    between atoms: _342  and  _345
REMARK  125  A    between atoms: _347  and  _349
REMARK  126  A    between atoms: _349  and  _350
REMARK  127  A    between atoms: _349  and  _352
REMARK  128  A    between atoms: _355  and  _357
REMARK  129  A    between atoms: _357  and  _358
REMARK  130  A    between atoms: _357  and  _360
REMARK  131  A    between atoms: _360  and  _361
REMARK  132  A    between atoms: _371  and  _373
REMARK  133  A    between atoms: _373  and  _374
REMARK  134  A    between atoms: _373  and  _376
REMARK  135  A    between atoms: _376  and  _377
REMARK  136  A    between atoms: _382  and  _384
REMARK  137  A    between atoms: _384  and  _385
REMARK  138  A    between atoms: _384  and  _387
REMARK  139  A    between atoms: _387  and  _388
REMARK  140  A    between atoms: _388  and  _389
REMARK  141  A    between atoms: _389  and  _390
REMARK                            x       y       z     vdW  Elec       q    Type
REMARK                         _______ _______ _______ _____ _____    ______ ____
ROOT
ATOM      1  O   HOH     1      -0.582  13.927  16.241  0.00  0.00    +0.000 OA
ENDROOT
TORSDOF 0
REMARK  Name = ../refined-set-2016/3p5l/3p5l_pocket.pdb
REMARK  141 active torsions:
REMARK  status: ('A' for Active; 'I' for Inactive)
REMARK    1  A    between atoms: _1  and  _3
REMARK    2  A    between atoms: _3  and  _4
REMARK    3  A    between atoms: _3  and  _6
REMARK    4  A    between atoms: _6  and  _7
REMARK    5  A    between atoms: _17  and  _19
REMARK    6  A    between atoms: _19  and  _20
REMARK    7  A    between atoms: _19  and  _22
REMARK    8  A    between atoms: _22  and  _23
REMARK    9  A    between atoms: _28  and  _29
REMARK   10  A    between atoms: _31  and  _33
REMARK   11  A    between atoms: _33  and  _34
REMARK   12  A    between atoms: _33  and  _36
REMARK   13  A    between atoms: _36  and  _37
REMARK   14  A    between atoms: _40  and  _42
REMARK   15  A    between atoms: _42  and  _43
REMARK   16  A    between atoms: _42  and  _45
REMARK   17  A    between atoms: _45  and  _46
REMARK   18  A    between atoms: _51  and  _53
REMARK   19  A    between atoms: _53  and  _54
REMARK   20  A    between atoms: _53  and  _56
REMARK   21  A    between atoms: _56  and  _57
REMARK   22  A    between atoms: _62  and  _64
REMARK   23  A    between atoms: _64  and  _65
REMARK   24  A    between atoms: _68  and  _70
REMARK   25  A    between atoms: _70  and  _71
REMARK   26  A    between atoms: _70  and  _73
REMARK   27  A    between atoms: _73  and  _74
REMARK   28  A    between atoms: _80  and  _82
REMARK   29  A    between atoms: _82  and  _83
REMARK   30  A    between atoms: _82  and  _85
REMARK   31  A    between atoms: _85  and  _86
REMARK   32  A    between atoms: _91  and  _93
REMARK   33  A    between atoms: _93  and  _94
REMARK   34  A    between atoms: _93  and  _96
REMARK   35  A    between atoms: _96  and  _97
REMARK   36  A    between atoms: _100  and  _102
REMARK   37  A    between atoms: _102  and  _103
REMARK   38  A    between atoms: _102  and  _105
REMARK   39  A    between atoms: _105  and  _106
REMARK   40  A    between atoms: _106  and  _107
REMARK   41  A    between atoms: _112  and  _114
REMARK   42  A    between atoms: _114  and  _115
REMARK   43  A    between atoms: _114  and  _117
REMARK   44  A    between atoms: _117  and  _118
REMARK   45  A    between atoms: _124  and  _126
REMARK   46  A    between atoms: _137  and  _140
REMARK   47  A    between atoms: _140  and  _141
REMARK   48  A    between atoms: _149  and  _150
REMARK   49  A    between atoms: _158  and  _160
REMARK   50  A    between atoms: _160  and  _161
REMARK   51  A    between atoms: _160  and  _163
REMARK   52  A    between atoms: _163  and  _164
REMARK   53  A    between atoms: _164  and  _165
REMARK   54  A    between atoms: _168  and  _170
REMARK   55  A    between atoms: _170  and  _171
REMARK   56  A    between atoms: _170  and  _173
REMARK   57  A    between atoms: _173  and  _174
REMARK   58  A    between atoms: _177  and  _179
REMARK   59  A    between atoms: _179  and  _180
REMARK   60  A    between atoms: _179  and  _182
REMARK   61  A    between atoms: _182  and  _183
REMARK   62  A    between atoms: _184  and  ZN_399
REMARK   63  A    between atoms: _188  and  _190
REMARK   64  A    between atoms: _190  and  _191
REMARK   65  A    between atoms: _190  and  _193
REMARK   66  A    between atoms: _193  and  _194
REMARK   67  A    between atoms: _197  and  _199
REMARK   68  A    between atoms: _199  and  _200
REMARK   69  A    between atoms: _199  and  _202
REMARK   70  A    between atoms: _205  and  _207
REMARK   71  A    between atoms: _207  and  _208
REMARK   72  A    between atoms: _207  and  _210
REMARK   73  A    between atoms: _210  and  _211
REMARK   74  A    between atoms: _216  and  _218
REMARK   75  A    between atoms: _218  and  _219
REMARK   76  A    between atoms: _218  and  _221
REMARK   77  A    between atoms: _221  and  _222
REMARK   78  A    between atoms: _228  and  _230
REMARK   79  A    between atoms: _230  and  _231
REMARK   80  A    between atoms: _233  and  _235
REMARK   81  A    between atoms: _235  and  _236
REMARK   82  A    between atoms: _235  and  _238
REMARK   83  A    between atoms: _241  and  _243
REMARK   84  A    between atoms: _243  and  _244
REMARK   85  A    between atoms: _243  and  _246
REMARK   86  A    between atoms: _246  and  _247
REMARK   87  A    between atoms: _250  and  _252
REMARK   88  A    between atoms: _252  and  _253
REMARK   89  A    between atoms: _256  and  _258
REMARK   90  A    between atoms: _258  and  _259
REMARK   91  A    between atoms: _258  and  _261
REMARK   92  A    between atoms: _264  and  _266
REMARK   93  A    between atoms: _266  and  _267
REMARK   94  A    between atoms: _266  and  _269
REMARK   95  A    between atoms: _269  and  _270
REMARK   96  A    between atoms: _273  and  _275
REMARK   97  A    between atoms: _275  and  _276
REMARK   98  A    between atoms: _275  and  _278
REMARK   99  A    between atoms: _278  and  _279
REMARK  100  A    between atoms: _281  and  _283
REMARK  101  A    between atoms: _283  and  _284
REMARK  102  A    between atoms: _283  and  _286
REMARK  103  A    between atoms: _286  and  _287
REMARK  104  A    between atoms: _290  and  _292
REMARK  105  A    between atoms: _292  and  _293
REMARK  106  A    between atoms: _292  and  _295
REMARK  107  A    between atoms: _295  and  _296
REMARK  108  A    between atoms: _299  and  _301
REMARK  109  A    between atoms: _301  and  _302
REMARK  110  A    between atoms: _301  and  _304
REMARK  111  A    between atoms: _304  and  _305
REMARK  112  A    between atoms: _309  and  _310
REMARK  113  A    between atoms: _316  and  _317
REMARK  114  A    between atoms: _322  and  _324
REMARK  115  A    between atoms: _324  and  _325
REMARK  116  A    between atoms: _324  and  _327
REMARK  117  A    between atoms: _327  and  _328
REMARK  118  A    between atoms: _331  and  _333
REMARK  119  A    between atoms: _333  and  _334
REMARK  120  A    between atoms: _333  and  _336
REMARK  121  A    between atoms: _336  and  _337
REMARK  122  A    between atoms: _340  and  _342
REMARK  123  A    between atoms: _342  and  _343
REMARK  124  A    between atoms: _342  and  _345
REMARK  125  A    between atoms: _347  and  _349
REMARK  126  A    between atoms: _349  and  _350
REMARK  127  A    between atoms: _349  and  _352
REMARK  128  A    between atoms: _355  and  _357
REMARK  129  A    between atoms: _357  and  _358
REMARK  130  A    between atoms: _357  and  _360
REMARK  131  A    between atoms: _360  and  _361
REMARK  132  A    between atoms: _371  and  _373
REMARK  133  A    between atoms: _373  and  _374
REMARK  134  A    between atoms: _373  and  _376
REMARK  135  A    between atoms: _376  and  _377
REMARK  136  A    between atoms: _382  and  _384
REMARK  137  A    between atoms: _384  and  _385
REMARK  138  A    between atoms: _384  and  _387
REMARK  139  A    between atoms: _387  and  _388
REMARK  140  A    between atoms: _388  and  _389
REMARK  141  A    between atoms: _389  and  _390
REMARK                            x       y       z     vdW  Elec       q    Type
REMARK                         _______ _______ _______ _____ _____    ______ ____
ROOT
ATOM      1  O   HOH     1      -0.351   3.793  10.145  0.00  0.00    +0.000 OA
ENDROOT
TORSDOF 0
