REMARK  Name = ../refined-set-2016/3g19/3g19_pocket.pdb
REMARK  102 active torsions:
REMARK  status: ('A' for Active; 'I' for Inactive)
REMARK    1  A    between atoms: _1  and  _3
REMARK    2  A    between atoms: _3  and  _4
REMARK    3  A    between atoms: _3  and  _6
REMARK    4  A    between atoms: _6  and  _7
REMARK    5  A    between atoms: _10  and  _12
REMARK    6  A    between atoms: _12  and  _13
REMARK    7  A    between atoms: _12  and  _15
REMARK    8  A    between atoms: _15  and  _16
REMARK    9  A    between atoms: _19  and  _21
REMARK   10  A    between atoms: _21  and  _22
REMARK   11  A    between atoms: _21  and  _24
REMARK   12  A    between atoms: _24  and  _25
REMARK   13  A    between atoms: _30  and  _32
REMARK   14  A    between atoms: _32  and  _33
REMARK   15  A    between atoms: _32  and  _35
REMARK   16  A    between atoms: _35  and  _36
REMARK   17  A    between atoms: _39  and  _41
REMARK   18  A    between atoms: _41  and  _42
REMARK   19  A    between atoms: _41  and  _44
REMARK   20  A    between atoms: _44  and  _45
REMARK   21  A    between atoms: _48  and  _50
REMARK   22  A    between atoms: _50  and  _51
REMARK   23  A    between atoms: _50  and  _53
REMARK   24  A    between atoms: _53  and  _54
REMARK   25  A    between atoms: _59  and  _60
REMARK   26  A    between atoms: _62  and  _64
REMARK   27  A    between atoms: _64  and  _65
REMARK   28  A    between atoms: _64  and  _67
REMARK   29  A    between atoms: _67  and  _68
REMARK   30  A    between atoms: _72  and  _73
REMARK   31  A    between atoms: _78  and  _80
REMARK   32  A    between atoms: _80  and  _81
REMARK   33  A    between atoms: _80  and  _83
REMARK   34  A    between atoms: _83  and  _84
REMARK   35  A    between atoms: _84  and  _85
REMARK   36  A    between atoms: _87  and  _89
REMARK   37  A    between atoms: _89  and  _90
REMARK   38  A    between atoms: _89  and  _92
REMARK   39  A    between atoms: _92  and  _93
REMARK   40  A    between atoms: _93  and  _94
REMARK   41  A    between atoms: _97  and  _99
REMARK   42  A    between atoms: _99  and  _100
REMARK   43  A    between atoms: _99  and  _102
REMARK   44  A    between atoms: _102  and  _103
REMARK   45  A    between atoms: _109  and  _111
REMARK   46  A    between atoms: _111  and  _112
REMARK   47  A    between atoms: _111  and  _114
REMARK   48  A    between atoms: _117  and  _119
REMARK   49  A    between atoms: _119  and  _120
REMARK   50  A    between atoms: _119  and  _122
REMARK   51  A    between atoms: _125  and  _127
REMARK   52  A    between atoms: _127  and  _128
REMARK   53  A    between atoms: _127  and  _130
REMARK   54  A    between atoms: _130  and  _131
REMARK   55  A    between atoms: _134  and  _136
REMARK   56  A    between atoms: _136  and  _137
REMARK   57  A    between atoms: _136  and  _139
REMARK   58  A    between atoms: _139  and  _140
REMARK   59  A    between atoms: _143  and  _145
REMARK   60  A    between atoms: _145  and  _146
REMARK   61  A    between atoms: _145  and  _148
REMARK   62  A    between atoms: _148  and  _149
REMARK   63  A    between atoms: _152  and  _154
REMARK   64  A    between atoms: _154  and  _155
REMARK   65  A    between atoms: _154  and  _157
REMARK   66  A    between atoms: _157  and  _158
REMARK   67  A    between atoms: _158  and  _159
REMARK   68  A    between atoms: _161  and  _163
REMARK   69  A    between atoms: _163  and  _164
REMARK   70  A    between atoms: _163  and  _166
REMARK   71  A    between atoms: _166  and  _167
REMARK   72  A    between atoms: _170  and  _172
REMARK   73  A    between atoms: _172  and  _173
REMARK   74  A    between atoms: _172  and  _175
REMARK   75  A    between atoms: _175  and  _176
REMARK   76  A    between atoms: _181  and  _183
REMARK   77  A    between atoms: _183  and  _184
REMARK   78  A    between atoms: _183  and  _186
REMARK   79  A    between atoms: _189  and  _191
REMARK   80  A    between atoms: _191  and  _192
REMARK   81  A    between atoms: _191  and  _194
REMARK   82  A    between atoms: _194  and  _195
REMARK   83  A    between atoms: _200  and  _202
REMARK   84  A    between atoms: _202  and  _203
REMARK   85  A    between atoms: _202  and  _205
REMARK   86  A    between atoms: _205  and  _206
REMARK   87  A    between atoms: _206  and  _207
REMARK   88  A    between atoms: _212  and  _214
REMARK   89  A    between atoms: _214  and  _215
REMARK   90  A    between atoms: _217  and  _219
REMARK   91  A    between atoms: _219  and  _220
REMARK   92  A    between atoms: _219  and  _222
REMARK   93  A    between atoms: _222  and  _223
REMARK   94  A    between atoms: _228  and  _230
REMARK   95  A    between atoms: _230  and  _231
REMARK   96  A    between atoms: _230  and  _233
REMARK   97  A    between atoms: _233  and  _234
REMARK   98  A    between atoms: _237  and  _239
REMARK   99  A    between atoms: _239  and  _240
REMARK  100  A    between atoms: _239  and  _242
REMARK  101  A    between atoms: _242  and  _243
REMARK  102  A    between atoms: _243  and  _244
REMARK                            x       y       z     vdW  Elec       q    Type
REMARK                         _______ _______ _______ _____ _____    ______ ____
ROOT
ATOM      1  C   TYR A   6      24.791  -4.017 -11.011  0.00  0.00    +0.241 C 
ATOM      2  O   TYR A   6      25.218  -5.079 -10.563  0.00  0.00    -0.273 OA
ATOM      3  N   THR A   7      23.560  -3.582 -10.767  0.00  0.00    -0.295 N 
ATOM      4  H   THR A   7      23.253  -2.671 -11.164  0.00  0.00    +0.150 HD
ENDROOT
BRANCH   1   5
ATOM      5  CA  TYR A   6      25.683  -3.133 -11.884  0.00  0.00    +0.153 C 
BRANCH   5   7
ATOM      6  C   ASP A   5      25.379  -2.699 -14.257  0.00  0.00    +0.241 C 
ATOM      7  N   TYR A   6      25.006  -2.473 -13.001  0.00  0.00    -0.297 N 
ATOM      8  H   TYR A   6      24.222  -1.818 -12.810  0.00  0.00    +0.150 HD
ATOM      9  O   ASP A   5      26.176  -3.584 -14.563  0.00  0.00    -0.273 OA
BRANCH   6  10
ATOM     10  CA  ASP A   5      24.753  -1.817 -15.336  0.00  0.00    +0.160 C 
BRANCH  10  13
ATOM     11  C   ASP A   4      22.680  -0.812 -14.589  0.00  0.00    +0.241 C 
ATOM     12  O   ASP A   4      22.073  -1.873 -14.725  0.00  0.00    -0.273 OA
ATOM     13  N   ASP A   5      23.986  -0.703 -14.792  0.00  0.00    -0.297 N 
ATOM     14  H   ASP A   5      24.469   0.188 -14.560  0.00  0.00    +0.150 HD
BRANCH  11  15
ATOM     15  CA  ASP A   4      21.938   0.452 -14.180  0.00  0.00    +0.160 C 
BRANCH  15  17
ATOM     16  C   ASN A   3      19.617   1.095 -14.542  0.00  0.00    +0.241 C 
ATOM     17  N   ASP A   4      20.517   0.159 -14.273  0.00  0.00    -0.297 N 
ATOM     18  H   ASP A   4      20.195  -0.819 -14.123  0.00  0.00    +0.150 HD
ATOM     19  O   ASN A   3      19.865   2.299 -14.512  0.00  0.00    -0.273 OA
BRANCH  16  20
ATOM     20  CA  ASN A   3      18.226   0.586 -14.883  0.00  0.00    +0.158 C 
BRANCH  20  23
ATOM     21  C   LEU A   2      16.791   1.693 -13.280  0.00  0.00    +0.241 C 
ATOM     22  O   LEU A   2      17.242   1.028 -12.347  0.00  0.00    -0.273 OA
ATOM     23  N   ASN A   3      17.194   1.546 -14.535  0.00  0.00    -0.297 N 
ATOM     24  H   ASN A   3      16.764   2.128 -15.282  0.00  0.00    +0.150 HD
BRANCH  21  25
ATOM     25  CA  LEU A   2      15.721   2.744 -13.045  0.00  0.00    +0.149 C 
BRANCH  25  27
ATOM     26  C   ILE A   1      13.749   1.742 -12.051  0.00  0.00    +0.238 C 
ATOM     27  N   LEU A   2      14.894   2.397 -11.900  0.00  0.00    -0.297 N 
ATOM     28  H   LEU A   2      15.205   2.667 -10.945  0.00  0.00    +0.150 HD
ATOM     29  O   ILE A   1      13.327   1.377 -13.148  0.00  0.00    -0.274 OA
BRANCH  26  30
ATOM     30  CA  ILE A   1      12.949   1.482 -10.784  0.00  0.00    +0.145 C 
BRANCH  30  31
ATOM     31  CB  ILE A   1      12.972  -0.015 -10.436  0.00  0.00    +0.025 C 
ATOM     32  CG2 ILE A   1      14.324  -0.621 -10.774  0.00  0.00    +0.002 C 
BRANCH  31  33
ATOM     33  CG1 ILE A   1      12.663  -0.213  -8.950  0.00  0.00    +0.002 C 
ATOM     34  CD1 ILE A   1      12.655  -1.662  -8.514  0.00  0.00    +0.000 C 
ENDBRANCH  31  33
ENDBRANCH  30  31
BRANCH  30  35
ATOM     35  N   ILE A   1      11.598   1.969 -10.998  0.00  0.00    -0.238 NA
ATOM     36  H   ILE A   1      11.015   1.533 -11.740  0.00  0.00    +0.142 HD
ENDBRANCH  30  35
ENDBRANCH  26  30
ENDBRANCH  25  27
BRANCH  25  37
ATOM     37  CB  LEU A   2      16.363   4.119 -12.855  0.00  0.00    +0.029 C 
BRANCH  37  38
ATOM     38  CG  LEU A   2      15.473   5.332 -13.134  0.00  0.00    +0.002 C 
ATOM     39  CD2 LEU A   2      14.240   5.326 -12.244  0.00  0.00    +0.000 C 
ATOM     40  CD1 LEU A   2      16.259   6.621 -12.954  0.00  0.00    +0.000 C 
ENDBRANCH  37  38
ENDBRANCH  25  37
ENDBRANCH  21  25
ENDBRANCH  20  23
BRANCH  20  41
ATOM     41  CB  ASN A   3      18.164   0.238 -16.370  0.00  0.00    +0.114 C 
BRANCH  41  42
ATOM     42  CG  ASN A   3      19.130  -0.869 -16.746  0.00  0.00    +0.222 C 
ATOM     43  OD1 ASN A   3      19.156  -1.922 -16.110  0.00  0.00    -0.275 OA
ATOM     44  ND2 ASN A   3      19.930  -0.636 -17.780  0.00  0.00    -0.329 N 
ATOM     45 HD21 ASN A   3      20.614  -1.359 -18.082  0.00  0.00    +0.145 HD
ATOM     46 HD22 ASN A   3      19.873   0.270 -18.288  0.00  0.00    +0.145 HD
ENDBRANCH  41  42
ENDBRANCH  20  41
ENDBRANCH  16  20
ENDBRANCH  15  17
BRANCH  15  47
ATOM     47  CB  ASP A   4      22.325   0.907 -12.770  0.00  0.00    +0.143 C 
BRANCH  47  48
ATOM     48  CG  ASP A   4      22.195  -0.196 -11.743  0.00  0.00    +0.367 C 
ATOM     49  OD2 ASP A   4      21.349  -0.067 -10.833  0.00  0.00    -0.246 OA
ATOM     50  OD1 ASP A   4      22.949  -1.185 -11.834  0.00  0.00    -0.246 OA
ENDBRANCH  47  48
ENDBRANCH  15  47
ENDBRANCH  11  15
ENDBRANCH  10  13
BRANCH  10  51
ATOM     51  CB  ASP A   5      25.840  -1.295 -16.280  0.00  0.00    +0.143 C 
BRANCH  51  52
ATOM     52  CG  ASP A   5      25.273  -0.480 -17.428  0.00  0.00    +0.367 C 
ATOM     53  OD2 ASP A   5      25.849   0.581 -17.748  0.00  0.00    -0.246 OA
ATOM     54  OD1 ASP A   5      24.255  -0.902 -18.014  0.00  0.00    -0.246 OA
ENDBRANCH  51  52
ENDBRANCH  10  51
ENDBRANCH   6  10
ENDBRANCH   5   7
BRANCH   5  55
ATOM     55  CB  TYR A   6      26.416  -2.093 -11.035  0.00  0.00    +0.055 C 
BRANCH  55  56
ATOM     56  CG  TYR A   6      27.304  -1.206 -11.871  0.00  0.00    -0.020 A 
ATOM     57  CD2 TYR A   6      26.897   0.069 -12.239  0.00  0.00    -0.001 A 
ATOM     58  CE2 TYR A   6      27.705   0.879 -13.016  0.00  0.00    +0.036 A 
ATOM     59  CZ  TYR A   6      28.932   0.409 -13.439  0.00  0.00    +0.134 A 
ATOM     60  CE1 TYR A   6      29.352  -0.856 -13.091  0.00  0.00    +0.036 A 
ATOM     61  CD1 TYR A   6      28.539  -1.655 -12.316  0.00  0.00    -0.001 A 
BRANCH  59  62
ATOM     62  OH  TYR A   6      29.745   1.202 -14.212  0.00  0.00    -0.506 OA
ATOM     63  HH  TYR A   6      30.579   0.711 -14.423  0.00  0.00    +0.292 HD
ENDBRANCH  59  62
ENDBRANCH  55  56
ENDBRANCH   5  55
ENDBRANCH   1   5
BRANCH   3  64
ATOM     64  CA  THR A   7      22.630  -4.358  -9.953  0.00  0.00    +0.176 C 
BRANCH  64  65
ATOM     65  C   THR A   7      22.240  -5.652 -10.656  0.00  0.00    +0.246 C 
ATOM     66  N   PRO A   8      22.346  -6.786  -9.948  0.00  0.00    -0.272 N 
ATOM     67  CD  PRO A   8      22.922  -6.918  -8.600  0.00  0.00    +0.094 C 
ATOM     68  CG  PRO A   8      23.311  -8.358  -8.538  0.00  0.00    +0.024 C 
ATOM     69  CB  PRO A   8      22.376  -9.087  -9.431  0.00  0.00    +0.031 C 
ATOM     70  CA  PRO A   8      21.981  -8.086 -10.523  0.00  0.00    +0.152 C 
ATOM     71  O   THR A   7      21.851  -5.630 -11.822  0.00  0.00    -0.273 OA
BRANCH  70  72
ATOM     72  C   PRO A   8      20.488  -8.203 -10.797  0.00  0.00    +0.241 C 
ATOM     73  O   PRO A   8      19.669  -7.752  -9.997  0.00  0.00    -0.273 OA
ATOM     74  N   MET A   9      20.148  -8.818 -11.924  0.00  0.00    -0.297 N 
ATOM     75  H   MET A   9      20.895  -9.115 -12.583  0.00  0.00    +0.150 HD
BRANCH  74  76
ATOM     76  CA  MET A   9      18.758  -9.087 -12.261  0.00  0.00    +0.149 C 
BRANCH  76  77
ATOM     77  C   MET A   9      18.035  -9.747 -11.093  0.00  0.00    +0.241 C 
ATOM     78  N   GLU A  10      18.680 -10.747 -10.499  0.00  0.00    -0.297 N 
ATOM     79  H   GLU A  10      19.618 -11.021 -10.855  0.00  0.00    +0.150 HD
ATOM     80  O   MET A   9      16.925  -9.355 -10.736  0.00  0.00    -0.273 OA
BRANCH  78  81
ATOM     81  CA  GLU A  10      18.117 -11.473  -9.364  0.00  0.00    +0.149 C 
BRANCH  81  82
ATOM     82  C   GLU A  10      17.665 -10.546  -8.240  0.00  0.00    +0.241 C 
ATOM     83  O   GLU A  10      16.630 -10.778  -7.619  0.00  0.00    -0.273 OA
ATOM     84  N   PHE A  11      18.446  -9.508  -7.961  0.00  0.00    -0.297 N 
ATOM     85  H   PHE A  11      19.312  -9.346  -8.513  0.00  0.00    +0.150 HD
BRANCH  84  86
ATOM     86  CA  PHE A  11      18.089  -8.595  -6.881  0.00  0.00    +0.153 C 
BRANCH  86  87
ATOM     87  C   PHE A  11      16.815  -7.830  -7.212  0.00  0.00    +0.241 C 
ATOM     88  O   PHE A  11      15.939  -7.669  -6.364  0.00  0.00    -0.273 OA
ATOM     89  N   VAL A  12      16.718  -7.360  -8.450  0.00  0.00    -0.297 N 
ATOM     90  H   VAL A  12      17.492  -7.533  -9.123  0.00  0.00    +0.150 HD
BRANCH  89  91
ATOM     91  CA  VAL A  12      15.548  -6.607  -8.884  0.00  0.00    +0.149 C 
BRANCH  91  92
ATOM     92  C   VAL A  12      14.278  -7.456  -8.813  0.00  0.00    +0.241 C 
ATOM     93  O   VAL A  12      13.218  -6.968  -8.424  0.00  0.00    -0.273 OA
ATOM     94  N   VAL A  13      14.387  -8.727  -9.181  0.00  0.00    -0.298 N 
ATOM     95  H   VAL A  13      15.291  -9.075  -9.558  0.00  0.00    +0.150 HD
BRANCH  94  96
ATOM     96  CA  VAL A  13      13.257  -9.642  -9.064  0.00  0.00    +0.137 C 
BRANCH  96  97
ATOM     97  CB  VAL A  13      13.585 -11.028  -9.654  0.00  0.00    +0.026 C 
ATOM     98  CG2 VAL A  13      12.448 -12.004  -9.394  0.00  0.00    +0.002 C 
ATOM     99  CG1 VAL A  13      13.865 -10.914 -11.146  0.00  0.00    +0.002 C 
ENDBRANCH  96  97
BRANCH  96 100
ATOM    100  C   VAL A  13      12.851  -9.779  -7.598  0.00  0.00    +0.227 C 
ATOM    101  O   VAL A  13      11.665  -9.830  -7.272  0.00  0.00    -0.286 OA
ENDBRANCH  96 100
ENDBRANCH  94  96
ENDBRANCH  91  92
BRANCH  91 102
ATOM    102  CB  VAL A  12      15.737  -6.040 -10.302  0.00  0.00    +0.027 C 
ATOM    103  CG2 VAL A  12      16.914  -5.073 -10.329  0.00  0.00    +0.002 C 
ATOM    104  CG1 VAL A  12      14.465  -5.351 -10.773  0.00  0.00    +0.002 C 
ENDBRANCH  91 102
ENDBRANCH  89  91
ENDBRANCH  86  87
BRANCH  86 105
ATOM    105  CB  PHE A  11      19.218  -7.613  -6.563  0.00  0.00    +0.055 C 
BRANCH 105 106
ATOM    106  CG  PHE A  11      18.844  -6.595  -5.521  0.00  0.00    -0.020 A 
ATOM    107  CD2 PHE A  11      18.717  -6.963  -4.192  0.00  0.00    -0.004 A 
ATOM    108  CE2 PHE A  11      18.364  -6.035  -3.230  0.00  0.00    -0.000 A 
ATOM    109  CZ  PHE A  11      18.128  -4.724  -3.593  0.00  0.00    -0.000 A 
ATOM    110  CE1 PHE A  11      18.246  -4.344  -4.917  0.00  0.00    -0.000 A 
ATOM    111  CD1 PHE A  11      18.599  -5.278  -5.873  0.00  0.00    -0.004 A 
ENDBRANCH 105 106
ENDBRANCH  86 105
ENDBRANCH  84  86
ENDBRANCH  81  82
BRANCH  81 112
ATOM    112  CB  GLU A  10      19.135 -12.471  -8.808  0.00  0.00    +0.041 C 
BRANCH 112 113
ATOM    113  CG  GLU A  10      19.838 -13.310  -9.855  0.00  0.00    +0.116 C 
BRANCH 113 114
ATOM    114  CD  GLU A  10      18.886 -14.182 -10.641  0.00  0.00    +0.365 C 
ATOM    115  OE2 GLU A  10      18.758 -15.375 -10.298  0.00  0.00    -0.246 OA
ATOM    116  OE1 GLU A  10      18.260 -13.674 -11.593  0.00  0.00    -0.246 OA
ENDBRANCH 113 114
ENDBRANCH 112 113
ENDBRANCH  81 112
ENDBRANCH  78  81
ENDBRANCH  76  77
BRANCH  76 117
ATOM    117  CB  MET A   9      18.677  -9.979 -13.498  0.00  0.00    +0.041 C 
BRANCH 117 118
ATOM    118  CG  MET A   9      18.995  -9.264 -14.796  0.00  0.00    +0.060 C 
BRANCH 118 119
ATOM    119  SD  MET A   9      18.605 -10.284 -16.227  0.00  0.00    -0.139 S 
ATOM    120  CE  MET A   9      19.044  -9.180 -17.562  0.00  0.00    +0.069 C 
ENDBRANCH 118 119
ENDBRANCH 117 118
ENDBRANCH  76 117
ENDBRANCH  74  76
ENDBRANCH  70  72
ENDBRANCH  64  65
BRANCH  64 121
ATOM    121  CB  THR A   7      21.350  -3.564  -9.648  0.00  0.00    +0.137 C 
ATOM    122  CG2 THR A   7      20.477  -4.327  -8.663  0.00  0.00    +0.034 C 
BRANCH 121 123
ATOM    123  OG1 THR A   7      21.696  -2.290  -9.094  0.00  0.00    -0.382 OA
ATOM    124  HG1 THR A   7      22.248  -1.788  -9.744  0.00  0.00    +0.210 HD
ENDBRANCH 121 123
ENDBRANCH  64 121
ENDBRANCH   3  64
TORSDOF 50
REMARK  Name = ../refined-set-2016/3g19/3g19_pocket.pdb
REMARK  102 active torsions:
REMARK  status: ('A' for Active; 'I' for Inactive)
REMARK    1  A    between atoms: _1  and  _3
REMARK    2  A    between atoms: _3  and  _4
REMARK    3  A    between atoms: _3  and  _6
REMARK    4  A    between atoms: _6  and  _7
REMARK    5  A    between atoms: _10  and  _12
REMARK    6  A    between atoms: _12  and  _13
REMARK    7  A    between atoms: _12  and  _15
REMARK    8  A    between atoms: _15  and  _16
REMARK    9  A    between atoms: _19  and  _21
REMARK   10  A    between atoms: _21  and  _22
REMARK   11  A    between atoms: _21  and  _24
REMARK   12  A    between atoms: _24  and  _25
REMARK   13  A    between atoms: _30  and  _32
REMARK   14  A    between atoms: _32  and  _33
REMARK   15  A    between atoms: _32  and  _35
REMARK   16  A    between atoms: _35  and  _36
REMARK   17  A    between atoms: _39  and  _41
REMARK   18  A    between atoms: _41  and  _42
REMARK   19  A    between atoms: _41  and  _44
REMARK   20  A    between atoms: _44  and  _45
REMARK   21  A    between atoms: _48  and  _50
REMARK   22  A    between atoms: _50  and  _51
REMARK   23  A    between atoms: _50  and  _53
REMARK   24  A    between atoms: _53  and  _54
REMARK   25  A    between atoms: _59  and  _60
REMARK   26  A    between atoms: _62  and  _64
REMARK   27  A    between atoms: _64  and  _65
REMARK   28  A    between atoms: _64  and  _67
REMARK   29  A    between atoms: _67  and  _68
REMARK   30  A    between atoms: _72  and  _73
REMARK   31  A    between atoms: _78  and  _80
REMARK   32  A    between atoms: _80  and  _81
REMARK   33  A    between atoms: _80  and  _83
REMARK   34  A    between atoms: _83  and  _84
REMARK   35  A    between atoms: _84  and  _85
REMARK   36  A    between atoms: _87  and  _89
REMARK   37  A    between atoms: _89  and  _90
REMARK   38  A    between atoms: _89  and  _92
REMARK   39  A    between atoms: _92  and  _93
REMARK   40  A    between atoms: _93  and  _94
REMARK   41  A    between atoms: _97  and  _99
REMARK   42  A    between atoms: _99  and  _100
REMARK   43  A    between atoms: _99  and  _102
REMARK   44  A    between atoms: _102  and  _103
REMARK   45  A    between atoms: _109  and  _111
REMARK   46  A    between atoms: _111  and  _112
REMARK   47  A    between atoms: _111  and  _114
REMARK   48  A    between atoms: _117  and  _119
REMARK   49  A    between atoms: _119  and  _120
REMARK   50  A    between atoms: _119  and  _122
REMARK   51  A    between atoms: _125  and  _127
REMARK   52  A    between atoms: _127  and  _128
REMARK   53  A    between atoms: _127  and  _130
REMARK   54  A    between atoms: _130  and  _131
REMARK   55  A    between atoms: _134  and  _136
REMARK   56  A    between atoms: _136  and  _137
REMARK   57  A    between atoms: _136  and  _139
REMARK   58  A    between atoms: _139  and  _140
REMARK   59  A    between atoms: _143  and  _145
REMARK   60  A    between atoms: _145  and  _146
REMARK   61  A    between atoms: _145  and  _148
REMARK   62  A    between atoms: _148  and  _149
REMARK   63  A    between atoms: _152  and  _154
REMARK   64  A    between atoms: _154  and  _155
REMARK   65  A    between atoms: _154  and  _157
REMARK   66  A    between atoms: _157  and  _158
REMARK   67  A    between atoms: _158  and  _159
REMARK   68  A    between atoms: _161  and  _163
REMARK   69  A    between atoms: _163  and  _164
REMARK   70  A    between atoms: _163  and  _166
REMARK   71  A    between atoms: _166  and  _167
REMARK   72  A    between atoms: _170  and  _172
REMARK   73  A    between atoms: _172  and  _173
REMARK   74  A    between atoms: _172  and  _175
REMARK   75  A    between atoms: _175  and  _176
REMARK   76  A    between atoms: _181  and  _183
REMARK   77  A    between atoms: _183  and  _184
REMARK   78  A    between atoms: _183  and  _186
REMARK   79  A    between atoms: _189  and  _191
REMARK   80  A    between atoms: _191  and  _192
REMARK   81  A    between atoms: _191  and  _194
REMARK   82  A    between atoms: _194  and  _195
REMARK   83  A    between atoms: _200  and  _202
REMARK   84  A    between atoms: _202  and  _203
REMARK   85  A    between atoms: _202  and  _205
REMARK   86  A    between atoms: _205  and  _206
REMARK   87  A    between atoms: _206  and  _207
REMARK   88  A    between atoms: _212  and  _214
REMARK   89  A    between atoms: _214  and  _215
REMARK   90  A    between atoms: _217  and  _219
REMARK   91  A    between atoms: _219  and  _220
REMARK   92  A    between atoms: _219  and  _222
REMARK   93  A    between atoms: _222  and  _223
REMARK   94  A    between atoms: _228  and  _230
REMARK   95  A    between atoms: _230  and  _231
REMARK   96  A    between atoms: _230  and  _233
REMARK   97  A    between atoms: _233  and  _234
REMARK   98  A    between atoms: _237  and  _239
REMARK   99  A    between atoms: _239  and  _240
REMARK  100  A    between atoms: _239  and  _242
REMARK  101  A    between atoms: _242  and  _243
REMARK  102  A    between atoms: _243  and  _244
REMARK                            x       y       z     vdW  Elec       q    Type
REMARK                         _______ _______ _______ _____ _____    ______ ____
ROOT
ATOM      1  CA  LEU A   1       9.585  -6.669  -7.017  0.00  0.00    +0.133 C 
ENDROOT
BRANCH   1   2
ATOM      2  N   LEU A   1      10.913  -6.689  -6.414  0.00  0.00    -0.239 NA
ATOM      3  H   LEU A   1      11.707  -7.099  -6.945  0.00  0.00    +0.142 HD
ENDBRANCH   1   2
BRANCH   1   4
ATOM      4  C   LEU A   1       8.656  -7.664  -6.331  0.00  0.00    +0.224 C 
ATOM      5  O   LEU A   1       7.510  -7.342  -6.017  0.00  0.00    -0.287 OA
ENDBRANCH   1   4
BRANCH   1   6
ATOM      6  CB  LEU A   1       9.673  -6.958  -8.517  0.00  0.00    +0.025 C 
BRANCH   6   7
ATOM      7  CG  LEU A   1      10.249  -5.808  -9.345  0.00  0.00    +0.002 C 
ATOM      8  CD2 LEU A   1       9.204  -4.718  -9.544  0.00  0.00    +0.000 C 
ATOM      9  CD1 LEU A   1      10.786  -6.302 -10.680  0.00  0.00    +0.000 C 
ENDBRANCH   6   7
ENDBRANCH   1   6
TORSDOF 4
REMARK  Name = ../refined-set-2016/3g19/3g19_pocket.pdb
REMARK  102 active torsions:
REMARK  status: ('A' for Active; 'I' for Inactive)
REMARK    1  A    between atoms: _1  and  _3
REMARK    2  A    between atoms: _3  and  _4
REMARK    3  A    between atoms: _3  and  _6
REMARK    4  A    between atoms: _6  and  _7
REMARK    5  A    between atoms: _10  and  _12
REMARK    6  A    between atoms: _12  and  _13
REMARK    7  A    between atoms: _12  and  _15
REMARK    8  A    between atoms: _15  and  _16
REMARK    9  A    between atoms: _19  and  _21
REMARK   10  A    between atoms: _21  and  _22
REMARK   11  A    between atoms: _21  and  _24
REMARK   12  A    between atoms: _24  and  _25
REMARK   13  A    between atoms: _30  and  _32
REMARK   14  A    between atoms: _32  and  _33
REMARK   15  A    between atoms: _32  and  _35
REMARK   16  A    between atoms: _35  and  _36
REMARK   17  A    between atoms: _39  and  _41
REMARK   18  A    between atoms: _41  and  _42
REMARK   19  A    between atoms: _41  and  _44
REMARK   20  A    between atoms: _44  and  _45
REMARK   21  A    between atoms: _48  and  _50
REMARK   22  A    between atoms: _50  and  _51
REMARK   23  A    between atoms: _50  and  _53
REMARK   24  A    between atoms: _53  and  _54
REMARK   25  A    between atoms: _59  and  _60
REMARK   26  A    between atoms: _62  and  _64
REMARK   27  A    between atoms: _64  and  _65
REMARK   28  A    between atoms: _64  and  _67
REMARK   29  A    between atoms: _67  and  _68
REMARK   30  A    between atoms: _72  and  _73
REMARK   31  A    between atoms: _78  and  _80
REMARK   32  A    between atoms: _80  and  _81
REMARK   33  A    between atoms: _80  and  _83
REMARK   34  A    between atoms: _83  and  _84
REMARK   35  A    between atoms: _84  and  _85
REMARK   36  A    between atoms: _87  and  _89
REMARK   37  A    between atoms: _89  and  _90
REMARK   38  A    between atoms: _89  and  _92
REMARK   39  A    between atoms: _92  and  _93
REMARK   40  A    between atoms: _93  and  _94
REMARK   41  A    between atoms: _97  and  _99
REMARK   42  A    between atoms: _99  and  _100
REMARK   43  A    between atoms: _99  and  _102
REMARK   44  A    between atoms: _102  and  _103
REMARK   45  A    between atoms: _109  and  _111
REMARK   46  A    between atoms: _111  and  _112
REMARK   47  A    between atoms: _111  and  _114
REMARK   48  A    between atoms: _117  and  _119
REMARK   49  A    between atoms: _119  and  _120
REMARK   50  A    between atoms: _119  and  _122
REMARK   51  A    between atoms: _125  and  _127
REMARK   52  A    between atoms: _127  and  _128
REMARK   53  A    between atoms: _127  and  _130
REMARK   54  A    between atoms: _130  and  _131
REMARK   55  A    between atoms: _134  and  _136
REMARK   56  A    between atoms: _136  and  _137
REMARK   57  A    between atoms: _136  and  _139
REMARK   58  A    between atoms: _139  and  _140
REMARK   59  A    between atoms: _143  and  _145
REMARK   60  A    between atoms: _145  and  _146
REMARK   61  A    between atoms: _145  and  _148
REMARK   62  A    between atoms: _148  and  _149
REMARK   63  A    between atoms: _152  and  _154
REMARK   64  A    between atoms: _154  and  _155
REMARK   65  A    between atoms: _154  and  _157
REMARK   66  A    between atoms: _157  and  _158
REMARK   67  A    between atoms: _158  and  _159
REMARK   68  A    between atoms: _161  and  _163
REMARK   69  A    between atoms: _163  and  _164
REMARK   70  A    between atoms: _163  and  _166
REMARK   71  A    between atoms: _166  and  _167
REMARK   72  A    between atoms: _170  and  _172
REMARK   73  A    between atoms: _172  and  _173
REMARK   74  A    between atoms: _172  and  _175
REMARK   75  A    between atoms: _175  and  _176
REMARK   76  A    between atoms: _181  and  _183
REMARK   77  A    between atoms: _183  and  _184
REMARK   78  A    between atoms: _183  and  _186
REMARK   79  A    between atoms: _189  and  _191
REMARK   80  A    between atoms: _191  and  _192
REMARK   81  A    between atoms: _191  and  _194
REMARK   82  A    between atoms: _194  and  _195
REMARK   83  A    between atoms: _200  and  _202
REMARK   84  A    between atoms: _202  and  _203
REMARK   85  A    between atoms: _202  and  _205
REMARK   86  A    between atoms: _205  and  _206
REMARK   87  A    between atoms: _206  and  _207
REMARK   88  A    between atoms: _212  and  _214
REMARK   89  A    between atoms: _214  and  _215
REMARK   90  A    between atoms: _217  and  _219
REMARK   91  A    between atoms: _219  and  _220
REMARK   92  A    between atoms: _219  and  _222
REMARK   93  A    between atoms: _222  and  _223
REMARK   94  A    between atoms: _228  and  _230
REMARK   95  A    between atoms: _230  and  _231
REMARK   96  A    between atoms: _230  and  _233
REMARK   97  A    between atoms: _233  and  _234
REMARK   98  A    between atoms: _237  and  _239
REMARK   99  A    between atoms: _239  and  _240
REMARK  100  A    between atoms: _239  and  _242
REMARK  101  A    between atoms: _242  and  _243
REMARK  102  A    between atoms: _243  and  _244
REMARK                            x       y       z     vdW  Elec       q    Type
REMARK                         _______ _______ _______ _____ _____    ______ ____
ROOT
ATOM      1  CA  THR A   1      10.322 -10.987 -14.224  0.00  0.00    +0.160 C 
ENDROOT
BRANCH   1   2
ATOM      2  N   THR A   1       9.435 -10.735 -13.097  0.00  0.00    -0.237 NA
ATOM      3  H   THR A   1       8.800 -11.494 -12.777  0.00  0.00    +0.142 HD
ENDBRANCH   1   2
BRANCH   1   4
ATOM      4  CB  THR A   1      10.165 -12.433 -14.736  0.00  0.00    +0.134 C 
ATOM      5  CG2 THR A   1      10.937 -12.632 -16.028  0.00  0.00    +0.034 C 
BRANCH   4   6
ATOM      6  OG1 THR A   1      10.657 -13.346 -13.746  0.00  0.00    -0.383 OA
ATOM      7  HG1 THR A   1      10.140 -13.233 -12.909  0.00  0.00    +0.210 HD
ENDBRANCH   4   6
ENDBRANCH   1   4
BRANCH   1   8
ATOM      8  C   THR A   1      10.056 -10.003 -15.360  0.00  0.00    +0.227 C 
ATOM      9  O   THR A   1      10.974  -9.345 -15.849  0.00  0.00    -0.287 OA
ENDBRANCH   1   8
TORSDOF 4
REMARK  Name = ../refined-set-2016/3g19/3g19_pocket.pdb
REMARK  102 active torsions:
REMARK  status: ('A' for Active; 'I' for Inactive)
REMARK    1  A    between atoms: _1  and  _3
REMARK    2  A    between atoms: _3  and  _4
REMARK    3  A    between atoms: _3  and  _6
REMARK    4  A    between atoms: _6  and  _7
REMARK    5  A    between atoms: _10  and  _12
REMARK    6  A    between atoms: _12  and  _13
REMARK    7  A    between atoms: _12  and  _15
REMARK    8  A    between atoms: _15  and  _16
REMARK    9  A    between atoms: _19  and  _21
REMARK   10  A    between atoms: _21  and  _22
REMARK   11  A    between atoms: _21  and  _24
REMARK   12  A    between atoms: _24  and  _25
REMARK   13  A    between atoms: _30  and  _32
REMARK   14  A    between atoms: _32  and  _33
REMARK   15  A    between atoms: _32  and  _35
REMARK   16  A    between atoms: _35  and  _36
REMARK   17  A    between atoms: _39  and  _41
REMARK   18  A    between atoms: _41  and  _42
REMARK   19  A    between atoms: _41  and  _44
REMARK   20  A    between atoms: _44  and  _45
REMARK   21  A    between atoms: _48  and  _50
REMARK   22  A    between atoms: _50  and  _51
REMARK   23  A    between atoms: _50  and  _53
REMARK   24  A    between atoms: _53  and  _54
REMARK   25  A    between atoms: _59  and  _60
REMARK   26  A    between atoms: _62  and  _64
REMARK   27  A    between atoms: _64  and  _65
REMARK   28  A    between atoms: _64  and  _67
REMARK   29  A    between atoms: _67  and  _68
REMARK   30  A    between atoms: _72  and  _73
REMARK   31  A    between atoms: _78  and  _80
REMARK   32  A    between atoms: _80  and  _81
REMARK   33  A    between atoms: _80  and  _83
REMARK   34  A    between atoms: _83  and  _84
REMARK   35  A    between atoms: _84  and  _85
REMARK   36  A    between atoms: _87  and  _89
REMARK   37  A    between atoms: _89  and  _90
REMARK   38  A    between atoms: _89  and  _92
REMARK   39  A    between atoms: _92  and  _93
REMARK   40  A    between atoms: _93  and  _94
REMARK   41  A    between atoms: _97  and  _99
REMARK   42  A    between atoms: _99  and  _100
REMARK   43  A    between atoms: _99  and  _102
REMARK   44  A    between atoms: _102  and  _103
REMARK   45  A    between atoms: _109  and  _111
REMARK   46  A    between atoms: _111  and  _112
REMARK   47  A    between atoms: _111  and  _114
REMARK   48  A    between atoms: _117  and  _119
REMARK   49  A    between atoms: _119  and  _120
REMARK   50  A    between atoms: _119  and  _122
REMARK   51  A    between atoms: _125  and  _127
REMARK   52  A    between atoms: _127  and  _128
REMARK   53  A    between atoms: _127  and  _130
REMARK   54  A    between atoms: _130  and  _131
REMARK   55  A    between atoms: _134  and  _136
REMARK   56  A    between atoms: _136  and  _137
REMARK   57  A    between atoms: _136  and  _139
REMARK   58  A    between atoms: _139  and  _140
REMARK   59  A    between atoms: _143  and  _145
REMARK   60  A    between atoms: _145  and  _146
REMARK   61  A    between atoms: _145  and  _148
REMARK   62  A    between atoms: _148  and  _149
REMARK   63  A    between atoms: _152  and  _154
REMARK   64  A    between atoms: _154  and  _155
REMARK   65  A    between atoms: _154  and  _157
REMARK   66  A    between atoms: _157  and  _158
REMARK   67  A    between atoms: _158  and  _159
REMARK   68  A    between atoms: _161  and  _163
REMARK   69  A    between atoms: _163  and  _164
REMARK   70  A    between atoms: _163  and  _166
REMARK   71  A    between atoms: _166  and  _167
REMARK   72  A    between atoms: _170  and  _172
REMARK   73  A    between atoms: _172  and  _173
REMARK   74  A    between atoms: _172  and  _175
REMARK   75  A    between atoms: _175  and  _176
REMARK   76  A    between atoms: _181  and  _183
REMARK   77  A    between atoms: _183  and  _184
REMARK   78  A    between atoms: _183  and  _186
REMARK   79  A    between atoms: _189  and  _191
REMARK   80  A    between atoms: _191  and  _192
REMARK   81  A    between atoms: _191  and  _194
REMARK   82  A    between atoms: _194  and  _195
REMARK   83  A    between atoms: _200  and  _202
REMARK   84  A    between atoms: _202  and  _203
REMARK   85  A    between atoms: _202  and  _205
REMARK   86  A    between atoms: _205  and  _206
REMARK   87  A    between atoms: _206  and  _207
REMARK   88  A    between atoms: _212  and  _214
REMARK   89  A    between atoms: _214  and  _215
REMARK   90  A    between atoms: _217  and  _219
REMARK   91  A    between atoms: _219  and  _220
REMARK   92  A    between atoms: _219  and  _222
REMARK   93  A    between atoms: _222  and  _223
REMARK   94  A    between atoms: _228  and  _230
REMARK   95  A    between atoms: _230  and  _231
REMARK   96  A    between atoms: _230  and  _233
REMARK   97  A    between atoms: _233  and  _234
REMARK   98  A    between atoms: _237  and  _239
REMARK   99  A    between atoms: _239  and  _240
REMARK  100  A    between atoms: _239  and  _242
REMARK  101  A    between atoms: _242  and  _243
REMARK  102  A    between atoms: _243  and  _244
REMARK                            x       y       z     vdW  Elec       q    Type
REMARK                         _______ _______ _______ _____ _____    ______ ____
ROOT
ATOM      1  CA  HIS A   4      11.496  -4.012 -18.945  0.00  0.00    +0.155 C 
ENDROOT
BRANCH   1   2
ATOM      2  C   HIS A   4      12.482  -2.946 -18.478  0.00  0.00    +0.241 C 
ATOM      3  N   VAL A   5      12.914  -3.055 -17.226  0.00  0.00    -0.297 N 
ATOM      4  H   VAL A   5      12.517  -3.798 -16.616  0.00  0.00    +0.150 HD
ATOM      5  O   HIS A   4      12.843  -2.045 -19.235  0.00  0.00    -0.273 OA
BRANCH   3   6
ATOM      6  CA  VAL A   5      13.930  -2.161 -16.685  0.00  0.00    +0.149 C 
BRANCH   6   7
ATOM      7  C   VAL A   5      15.247  -2.346 -17.431  0.00  0.00    +0.241 C 
ATOM      8  N   HIS A   6      15.654  -3.601 -17.586  0.00  0.00    -0.297 N 
ATOM      9  H   HIS A   6      15.050  -4.372 -17.237  0.00  0.00    +0.150 HD
ATOM     10  O   VAL A   5      15.876  -1.378 -17.858  0.00  0.00    -0.273 OA
BRANCH   8  11
ATOM     11  CA  HIS A   6      16.920  -3.932 -18.230  0.00  0.00    +0.155 C 
BRANCH  11  12
ATOM     12  C   HIS A   6      16.963  -3.491 -19.690  0.00  0.00    +0.241 C 
ATOM     13  O   HIS A   6      18.003  -3.054 -20.183  0.00  0.00    -0.273 OA
ATOM     14  N   GLN A   7      15.830  -3.601 -20.375  0.00  0.00    -0.298 N 
ATOM     15  H   GLN A   7      14.962  -3.890 -19.880  0.00  0.00    +0.150 HD
BRANCH  14  16
ATOM     16  CA  GLN A   7      15.776  -3.325 -21.808  0.00  0.00    +0.137 C 
BRANCH  16  17
ATOM     17  C   GLN A   7      15.365  -1.891 -22.137  0.00  0.00    +0.227 C 
ATOM     18  O   GLN A   7      15.900  -1.284 -23.064  0.00  0.00    -0.286 OA
ENDBRANCH  16  17
BRANCH  16  19
ATOM     19  CB  GLN A   7      14.837  -4.313 -22.506  0.00  0.00    +0.037 C 
BRANCH  19  20
ATOM     20  CG  GLN A   7      15.381  -5.730 -22.583  0.00  0.00    +0.087 C 
BRANCH  20  21
ATOM     21  CD  GLN A   7      14.403  -6.696 -23.217  0.00  0.00    +0.219 C 
ATOM     22  OE1 GLN A   7      13.290  -6.878 -22.729  0.00  0.00    -0.275 OA
ATOM     23  NE2 GLN A   7      14.817  -7.328 -24.309  0.00  0.00    -0.329 N 
ATOM     24 HE21 GLN A   7      15.768  -7.143 -24.688  0.00  0.00    +0.145 HD
ATOM     25 HE22 GLN A   7      14.190  -8.008 -24.785  0.00  0.00    +0.145 HD
ENDBRANCH  20  21
ENDBRANCH  19  20
ENDBRANCH  16  19
ENDBRANCH  14  16
ENDBRANCH  11  12
BRANCH  11  26
ATOM     26  CB  HIS A   6      17.184  -5.437 -18.130  0.00  0.00    +0.076 C 
BRANCH  26  27
ATOM     27  CG  HIS A   6      18.436  -5.880 -18.820  0.00  0.00    +0.082 A 
ATOM     28  ND1 HIS A   6      19.674  -5.834 -18.218  0.00  0.00    -0.227 NA
ATOM     29  CE1 HIS A   6      20.588  -6.287 -19.057  0.00  0.00    +0.199 A 
ATOM     30  NE2 HIS A   6      19.986  -6.627 -20.183  0.00  0.00    -0.221 NA
ATOM     31  CD2 HIS A   6      18.640  -6.383 -20.061  0.00  0.00    +0.115 A 
ENDBRANCH  26  27
ENDBRANCH  11  26
ENDBRANCH   8  11
ENDBRANCH   6   7
BRANCH   6  32
ATOM     32  CB  VAL A   5      14.170  -2.423 -15.186  0.00  0.00    +0.027 C 
ATOM     33  CG2 VAL A   5      12.911  -2.133 -14.384  0.00  0.00    +0.002 C 
ATOM     34  CG1 VAL A   5      15.339  -1.587 -14.682  0.00  0.00    +0.002 C 
ENDBRANCH   6  32
ENDBRANCH   3   6
ENDBRANCH   1   2
BRANCH   1  36
ATOM     35  C   LEU A   3      12.991  -5.920 -18.771  0.00  0.00    +0.241 C 
ATOM     36  N   HIS A   4      11.870  -5.310 -18.398  0.00  0.00    -0.297 N 
ATOM     37  H   HIS A   4      11.248  -5.768 -17.702  0.00  0.00    +0.150 HD
ATOM     38  O   LEU A   3      13.749  -5.462 -19.626  0.00  0.00    -0.273 OA
BRANCH  35  39
ATOM     39  CA  LEU A   3      13.308  -7.241 -18.077  0.00  0.00    +0.149 C 
BRANCH  39  42
ATOM     40  C   MET A   2      13.303  -6.443 -15.778  0.00  0.00    +0.241 C 
ATOM     41  O   MET A   2      14.207  -5.640 -16.005  0.00  0.00    -0.273 OA
ATOM     42  N   LEU A   3      12.807  -7.255 -16.707  0.00  0.00    -0.297 N 
ATOM     43  H   LEU A   3      12.045  -7.915 -16.451  0.00  0.00    +0.150 HD
BRANCH  40  44
ATOM     44  CA  MET A   2      12.685  -6.550 -14.387  0.00  0.00    +0.149 C 
BRANCH  44  46
ATOM     45  C   ILE A   1      10.547  -5.551 -14.991  0.00  0.00    +0.238 C 
ATOM     46  N   MET A   2      11.228  -6.562 -14.461  0.00  0.00    -0.297 N 
ATOM     47  H   MET A   2      10.709  -7.383 -14.089  0.00  0.00    +0.150 HD
ATOM     48  O   ILE A   1      11.089  -4.542 -15.442  0.00  0.00    -0.274 OA
BRANCH  45  49
ATOM     49  CA  ILE A   1       9.029  -5.702 -15.024  0.00  0.00    +0.145 C 
BRANCH  49  50
ATOM     50  N   ILE A   1       8.632  -7.057 -15.388  0.00  0.00    -0.238 NA
ATOM     51  H   ILE A   1       8.097  -7.629 -14.704  0.00  0.00    +0.142 HD
ENDBRANCH  49  50
BRANCH  49  52
ATOM     52  CB  ILE A   1       8.436  -5.290 -13.664  0.00  0.00    +0.025 C 
ATOM     53  CG2 ILE A   1       8.914  -3.900 -13.274  0.00  0.00    +0.002 C 
BRANCH  52  54
ATOM     54  CG1 ILE A   1       6.908  -5.340 -13.718  0.00  0.00    +0.002 C 
ATOM     55  CD1 ILE A   1       6.238  -5.076 -12.387  0.00  0.00    +0.000 C 
ENDBRANCH  52  54
ENDBRANCH  49  52
ENDBRANCH  45  49
ENDBRANCH  44  46
BRANCH  44  56
ATOM     56  CB  MET A   2      13.196  -7.802 -13.667  0.00  0.00    +0.041 C 
BRANCH  56  57
ATOM     57  CG  MET A   2      14.713  -7.902 -13.568  0.00  0.00    +0.060 C 
BRANCH  57  58
ATOM     58  SD  MET A   2      15.485  -8.639 -15.024  0.00  0.00    -0.139 S 
ATOM     59  CE  MET A   2      14.788 -10.289 -14.981  0.00  0.00    +0.069 C 
ENDBRANCH  57  58
ENDBRANCH  56  57
ENDBRANCH  44  56
ENDBRANCH  40  44
ENDBRANCH  39  42
BRANCH  39  60
ATOM     60  CB  LEU A   3      12.741  -8.419 -18.874  0.00  0.00    +0.029 C 
BRANCH  60  61
ATOM     61  CG  LEU A   3      13.273  -9.799 -18.476  0.00  0.00    +0.002 C 
ATOM     62  CD2 LEU A   3      14.768  -9.897 -18.750  0.00  0.00    +0.000 C 
ATOM     63  CD1 LEU A   3      12.517 -10.908 -19.194  0.00  0.00    +0.000 C 
ENDBRANCH  60  61
ENDBRANCH  39  60
ENDBRANCH  35  39
ENDBRANCH   1  36
BRANCH   1  64
ATOM     64  CB  HIS A   4      10.071  -3.641 -18.530  0.00  0.00    +0.076 C 
BRANCH  64  65
ATOM     65  CG  HIS A   4       9.534  -2.434 -19.231  0.00  0.00    +0.082 A 
ATOM     66  CD2 HIS A   4       9.580  -1.120 -18.909  0.00  0.00    +0.115 A 
ATOM     67  NE2 HIS A   4       8.932  -0.434 -19.906  0.00  0.00    -0.221 NA
ATOM     68  CE1 HIS A   4       8.499  -1.295 -20.810  0.00  0.00    +0.199 A 
ATOM     69  ND1 HIS A   4       8.851  -2.511 -20.427  0.00  0.00    -0.227 NA
ENDBRANCH  64  65
ENDBRANCH   1  64
TORSDOF 29
REMARK  Name = ../refined-set-2016/3g19/3g19_pocket.pdb
REMARK  102 active torsions:
REMARK  status: ('A' for Active; 'I' for Inactive)
REMARK    1  A    between atoms: _1  and  _3
REMARK    2  A    between atoms: _3  and  _4
REMARK    3  A    between atoms: _3  and  _6
REMARK    4  A    between atoms: _6  and  _7
REMARK    5  A    between atoms: _10  and  _12
REMARK    6  A    between atoms: _12  and  _13
REMARK    7  A    between atoms: _12  and  _15
REMARK    8  A    between atoms: _15  and  _16
REMARK    9  A    between atoms: _19  and  _21
REMARK   10  A    between atoms: _21  and  _22
REMARK   11  A    between atoms: _21  and  _24
REMARK   12  A    between atoms: _24  and  _25
REMARK   13  A    between atoms: _30  and  _32
REMARK   14  A    between atoms: _32  and  _33
REMARK   15  A    between atoms: _32  and  _35
REMARK   16  A    between atoms: _35  and  _36
REMARK   17  A    between atoms: _39  and  _41
REMARK   18  A    between atoms: _41  and  _42
REMARK   19  A    between atoms: _41  and  _44
REMARK   20  A    between atoms: _44  and  _45
REMARK   21  A    between atoms: _48  and  _50
REMARK   22  A    between atoms: _50  and  _51
REMARK   23  A    between atoms: _50  and  _53
REMARK   24  A    between atoms: _53  and  _54
REMARK   25  A    between atoms: _59  and  _60
REMARK   26  A    between atoms: _62  and  _64
REMARK   27  A    between atoms: _64  and  _65
REMARK   28  A    between atoms: _64  and  _67
REMARK   29  A    between atoms: _67  and  _68
REMARK   30  A    between atoms: _72  and  _73
REMARK   31  A    between atoms: _78  and  _80
REMARK   32  A    between atoms: _80  and  _81
REMARK   33  A    between atoms: _80  and  _83
REMARK   34  A    between atoms: _83  and  _84
REMARK   35  A    between atoms: _84  and  _85
REMARK   36  A    between atoms: _87  and  _89
REMARK   37  A    between atoms: _89  and  _90
REMARK   38  A    between atoms: _89  and  _92
REMARK   39  A    between atoms: _92  and  _93
REMARK   40  A    between atoms: _93  and  _94
REMARK   41  A    between atoms: _97  and  _99
REMARK   42  A    between atoms: _99  and  _100
REMARK   43  A    between atoms: _99  and  _102
REMARK   44  A    between atoms: _102  and  _103
REMARK   45  A    between atoms: _109  and  _111
REMARK   46  A    between atoms: _111  and  _112
REMARK   47  A    between atoms: _111  and  _114
REMARK   48  A    between atoms: _117  and  _119
REMARK   49  A    between atoms: _119  and  _120
REMARK   50  A    between atoms: _119  and  _122
REMARK   51  A    between atoms: _125  and  _127
REMARK   52  A    between atoms: _127  and  _128
REMARK   53  A    between atoms: _127  and  _130
REMARK   54  A    between atoms: _130  and  _131
REMARK   55  A    between atoms: _134  and  _136
REMARK   56  A    between atoms: _136  and  _137
REMARK   57  A    between atoms: _136  and  _139
REMARK   58  A    between atoms: _139  and  _140
REMARK   59  A    between atoms: _143  and  _145
REMARK   60  A    between atoms: _145  and  _146
REMARK   61  A    between atoms: _145  and  _148
REMARK   62  A    between atoms: _148  and  _149
REMARK   63  A    between atoms: _152  and  _154
REMARK   64  A    between atoms: _154  and  _155
REMARK   65  A    between atoms: _154  and  _157
REMARK   66  A    between atoms: _157  and  _158
REMARK   67  A    between atoms: _158  and  _159
REMARK   68  A    between atoms: _161  and  _163
REMARK   69  A    between atoms: _163  and  _164
REMARK   70  A    between atoms: _163  and  _166
REMARK   71  A    between atoms: _166  and  _167
REMARK   72  A    between atoms: _170  and  _172
REMARK   73  A    between atoms: _172  and  _173
REMARK   74  A    between atoms: _172  and  _175
REMARK   75  A    between atoms: _175  and  _176
REMARK   76  A    between atoms: _181  and  _183
REMARK   77  A    between atoms: _183  and  _184
REMARK   78  A    between atoms: _183  and  _186
REMARK   79  A    between atoms: _189  and  _191
REMARK   80  A    between atoms: _191  and  _192
REMARK   81  A    between atoms: _191  and  _194
REMARK   82  A    between atoms: _194  and  _195
REMARK   83  A    between atoms: _200  and  _202
REMARK   84  A    between atoms: _202  and  _203
REMARK   85  A    between atoms: _202  and  _205
REMARK   86  A    between atoms: _205  and  _206
REMARK   87  A    between atoms: _206  and  _207
REMARK   88  A    between atoms: _212  and  _214
REMARK   89  A    between atoms: _214  and  _215
REMARK   90  A    between atoms: _217  and  _219
REMARK   91  A    between atoms: _219  and  _220
REMARK   92  A    between atoms: _219  and  _222
REMARK   93  A    between atoms: _222  and  _223
REMARK   94  A    between atoms: _228  and  _230
REMARK   95  A    between atoms: _230  and  _231
REMARK   96  A    between atoms: _230  and  _233
REMARK   97  A    between atoms: _233  and  _234
REMARK   98  A    between atoms: _237  and  _239
REMARK   99  A    between atoms: _239  and  _240
REMARK  100  A    between atoms: _239  and  _242
REMARK  101  A    between atoms: _242  and  _243
REMARK  102  A    between atoms: _243  and  _244
REMARK                            x       y       z     vdW  Elec       q    Type
REMARK                         _______ _______ _______ _____ _____    ______ ____
ROOT
ATOM      1  CA  GLY A   1      15.858   1.647 -18.870  0.00  0.00    +0.156 C 
ENDROOT
BRANCH   1   2
ATOM      2  N   GLY A   1      15.178   0.689 -19.725  0.00  0.00    -0.238 NA
ATOM      3  H   GLY A   1      15.243  -0.325 -19.504  0.00  0.00    +0.142 HD
ENDBRANCH   1   2
BRANCH   1   4
ATOM      4  C   GLY A   1      15.062   2.067 -17.649  0.00  0.00    +0.226 C 
ATOM      5  O   GLY A   1      15.604   2.678 -16.728  0.00  0.00    -0.287 OA
ENDBRANCH   1   4
TORSDOF 2
REMARK  Name = ../refined-set-2016/3g19/3g19_pocket.pdb
REMARK  102 active torsions:
REMARK  status: ('A' for Active; 'I' for Inactive)
REMARK    1  A    between atoms: _1  and  _3
REMARK    2  A    between atoms: _3  and  _4
REMARK    3  A    between atoms: _3  and  _6
REMARK    4  A    between atoms: _6  and  _7
REMARK    5  A    between atoms: _10  and  _12
REMARK    6  A    between atoms: _12  and  _13
REMARK    7  A    between atoms: _12  and  _15
REMARK    8  A    between atoms: _15  and  _16
REMARK    9  A    between atoms: _19  and  _21
REMARK   10  A    between atoms: _21  and  _22
REMARK   11  A    between atoms: _21  and  _24
REMARK   12  A    between atoms: _24  and  _25
REMARK   13  A    between atoms: _30  and  _32
REMARK   14  A    between atoms: _32  and  _33
REMARK   15  A    between atoms: _32  and  _35
REMARK   16  A    between atoms: _35  and  _36
REMARK   17  A    between atoms: _39  and  _41
REMARK   18  A    between atoms: _41  and  _42
REMARK   19  A    between atoms: _41  and  _44
REMARK   20  A    between atoms: _44  and  _45
REMARK   21  A    between atoms: _48  and  _50
REMARK   22  A    between atoms: _50  and  _51
REMARK   23  A    between atoms: _50  and  _53
REMARK   24  A    between atoms: _53  and  _54
REMARK   25  A    between atoms: _59  and  _60
REMARK   26  A    between atoms: _62  and  _64
REMARK   27  A    between atoms: _64  and  _65
REMARK   28  A    between atoms: _64  and  _67
REMARK   29  A    between atoms: _67  and  _68
REMARK   30  A    between atoms: _72  and  _73
REMARK   31  A    between atoms: _78  and  _80
REMARK   32  A    between atoms: _80  and  _81
REMARK   33  A    between atoms: _80  and  _83
REMARK   34  A    between atoms: _83  and  _84
REMARK   35  A    between atoms: _84  and  _85
REMARK   36  A    between atoms: _87  and  _89
REMARK   37  A    between atoms: _89  and  _90
REMARK   38  A    between atoms: _89  and  _92
REMARK   39  A    between atoms: _92  and  _93
REMARK   40  A    between atoms: _93  and  _94
REMARK   41  A    between atoms: _97  and  _99
REMARK   42  A    between atoms: _99  and  _100
REMARK   43  A    between atoms: _99  and  _102
REMARK   44  A    between atoms: _102  and  _103
REMARK   45  A    between atoms: _109  and  _111
REMARK   46  A    between atoms: _111  and  _112
REMARK   47  A    between atoms: _111  and  _114
REMARK   48  A    between atoms: _117  and  _119
REMARK   49  A    between atoms: _119  and  _120
REMARK   50  A    between atoms: _119  and  _122
REMARK   51  A    between atoms: _125  and  _127
REMARK   52  A    between atoms: _127  and  _128
REMARK   53  A    between atoms: _127  and  _130
REMARK   54  A    between atoms: _130  and  _131
REMARK   55  A    between atoms: _134  and  _136
REMARK   56  A    between atoms: _136  and  _137
REMARK   57  A    between atoms: _136  and  _139
REMARK   58  A    between atoms: _139  and  _140
REMARK   59  A    between atoms: _143  and  _145
REMARK   60  A    between atoms: _145  and  _146
REMARK   61  A    between atoms: _145  and  _148
REMARK   62  A    between atoms: _148  and  _149
REMARK   63  A    between atoms: _152  and  _154
REMARK   64  A    between atoms: _154  and  _155
REMARK   65  A    between atoms: _154  and  _157
REMARK   66  A    between atoms: _157  and  _158
REMARK   67  A    between atoms: _158  and  _159
REMARK   68  A    between atoms: _161  and  _163
REMARK   69  A    between atoms: _163  and  _164
REMARK   70  A    between atoms: _163  and  _166
REMARK   71  A    between atoms: _166  and  _167
REMARK   72  A    between atoms: _170  and  _172
REMARK   73  A    between atoms: _172  and  _173
REMARK   74  A    between atoms: _172  and  _175
REMARK   75  A    between atoms: _175  and  _176
REMARK   76  A    between atoms: _181  and  _183
REMARK   77  A    between atoms: _183  and  _184
REMARK   78  A    between atoms: _183  and  _186
REMARK   79  A    between atoms: _189  and  _191
REMARK   80  A    between atoms: _191  and  _192
REMARK   81  A    between atoms: _191  and  _194
REMARK   82  A    between atoms: _194  and  _195
REMARK   83  A    between atoms: _200  and  _202
REMARK   84  A    between atoms: _202  and  _203
REMARK   85  A    between atoms: _202  and  _205
REMARK   86  A    between atoms: _205  and  _206
REMARK   87  A    between atoms: _206  and  _207
REMARK   88  A    between atoms: _212  and  _214
REMARK   89  A    between atoms: _214  and  _215
REMARK   90  A    between atoms: _217  and  _219
REMARK   91  A    between atoms: _219  and  _220
REMARK   92  A    between atoms: _219  and  _222
REMARK   93  A    between atoms: _222  and  _223
REMARK   94  A    between atoms: _228  and  _230
REMARK   95  A    between atoms: _230  and  _231
REMARK   96  A    between atoms: _230  and  _233
REMARK   97  A    between atoms: _233  and  _234
REMARK   98  A    between atoms: _237  and  _239
REMARK   99  A    between atoms: _239  and  _240
REMARK  100  A    between atoms: _239  and  _242
REMARK  101  A    between atoms: _242  and  _243
REMARK  102  A    between atoms: _243  and  _244
REMARK                            x       y       z     vdW  Elec       q    Type
REMARK                         _______ _______ _______ _____ _____    ______ ____
ROOT
ATOM      1  CB  HIS A   1      22.901  -3.084  -5.868  0.00  0.00    +0.072 C 
ENDROOT
BRANCH   1   2
ATOM      2  CG  HIS A   1      23.078  -4.541  -5.567  0.00  0.00    +0.082 A 
ATOM      3  CD2 HIS A   1      22.277  -5.417  -4.913  0.00  0.00    +0.115 A 
ATOM      4  NE2 HIS A   1      22.912  -6.636  -4.930  0.00  0.00    -0.221 NA
ATOM      5  CE1 HIS A   1      24.058  -6.513  -5.574  0.00  0.00    +0.199 A 
ATOM      6  ND1 HIS A   1      24.179  -5.260  -5.974  0.00  0.00    -0.227 NA
ENDBRANCH   1   2
BRANCH   1   7
ATOM      7  CA  HIS A   1      24.056  -2.203  -5.381  0.00  0.00    +0.139 C 
BRANCH   7   8
ATOM      8  N   HIS A   1      24.376  -2.483  -3.984  0.00  0.00    -0.239 NA
ATOM      9  H   HIS A   1      23.619  -2.423  -3.274  0.00  0.00    +0.142 HD
ENDBRANCH   7   8
BRANCH   7  10
ATOM     10  C   HIS A   1      23.679  -0.732  -5.543  0.00  0.00    +0.224 C 
ATOM     11  O   HIS A   1      23.162  -0.118  -4.610  0.00  0.00    -0.287 OA
ENDBRANCH   7  10
ENDBRANCH   1   7
TORSDOF 4
REMARK  Name = ../refined-set-2016/3g19/3g19_pocket.pdb
REMARK  102 active torsions:
REMARK  status: ('A' for Active; 'I' for Inactive)
REMARK    1  A    between atoms: _1  and  _3
REMARK    2  A    between atoms: _3  and  _4
REMARK    3  A    between atoms: _3  and  _6
REMARK    4  A    between atoms: _6  and  _7
REMARK    5  A    between atoms: _10  and  _12
REMARK    6  A    between atoms: _12  and  _13
REMARK    7  A    between atoms: _12  and  _15
REMARK    8  A    between atoms: _15  and  _16
REMARK    9  A    between atoms: _19  and  _21
REMARK   10  A    between atoms: _21  and  _22
REMARK   11  A    between atoms: _21  and  _24
REMARK   12  A    between atoms: _24  and  _25
REMARK   13  A    between atoms: _30  and  _32
REMARK   14  A    between atoms: _32  and  _33
REMARK   15  A    between atoms: _32  and  _35
REMARK   16  A    between atoms: _35  and  _36
REMARK   17  A    between atoms: _39  and  _41
REMARK   18  A    between atoms: _41  and  _42
REMARK   19  A    between atoms: _41  and  _44
REMARK   20  A    between atoms: _44  and  _45
REMARK   21  A    between atoms: _48  and  _50
REMARK   22  A    between atoms: _50  and  _51
REMARK   23  A    between atoms: _50  and  _53
REMARK   24  A    between atoms: _53  and  _54
REMARK   25  A    between atoms: _59  and  _60
REMARK   26  A    between atoms: _62  and  _64
REMARK   27  A    between atoms: _64  and  _65
REMARK   28  A    between atoms: _64  and  _67
REMARK   29  A    between atoms: _67  and  _68
REMARK   30  A    between atoms: _72  and  _73
REMARK   31  A    between atoms: _78  and  _80
REMARK   32  A    between atoms: _80  and  _81
REMARK   33  A    between atoms: _80  and  _83
REMARK   34  A    between atoms: _83  and  _84
REMARK   35  A    between atoms: _84  and  _85
REMARK   36  A    between atoms: _87  and  _89
REMARK   37  A    between atoms: _89  and  _90
REMARK   38  A    between atoms: _89  and  _92
REMARK   39  A    between atoms: _92  and  _93
REMARK   40  A    between atoms: _93  and  _94
REMARK   41  A    between atoms: _97  and  _99
REMARK   42  A    between atoms: _99  and  _100
REMARK   43  A    between atoms: _99  and  _102
REMARK   44  A    between atoms: _102  and  _103
REMARK   45  A    between atoms: _109  and  _111
REMARK   46  A    between atoms: _111  and  _112
REMARK   47  A    between atoms: _111  and  _114
REMARK   48  A    between atoms: _117  and  _119
REMARK   49  A    between atoms: _119  and  _120
REMARK   50  A    between atoms: _119  and  _122
REMARK   51  A    between atoms: _125  and  _127
REMARK   52  A    between atoms: _127  and  _128
REMARK   53  A    between atoms: _127  and  _130
REMARK   54  A    between atoms: _130  and  _131
REMARK   55  A    between atoms: _134  and  _136
REMARK   56  A    between atoms: _136  and  _137
REMARK   57  A    between atoms: _136  and  _139
REMARK   58  A    between atoms: _139  and  _140
REMARK   59  A    between atoms: _143  and  _145
REMARK   60  A    between atoms: _145  and  _146
REMARK   61  A    between atoms: _145  and  _148
REMARK   62  A    between atoms: _148  and  _149
REMARK   63  A    between atoms: _152  and  _154
REMARK   64  A    between atoms: _154  and  _155
REMARK   65  A    between atoms: _154  and  _157
REMARK   66  A    between atoms: _157  and  _158
REMARK   67  A    between atoms: _158  and  _159
REMARK   68  A    between atoms: _161  and  _163
REMARK   69  A    between atoms: _163  and  _164
REMARK   70  A    between atoms: _163  and  _166
REMARK   71  A    between atoms: _166  and  _167
REMARK   72  A    between atoms: _170  and  _172
REMARK   73  A    between atoms: _172  and  _173
REMARK   74  A    between atoms: _172  and  _175
REMARK   75  A    between atoms: _175  and  _176
REMARK   76  A    between atoms: _181  and  _183
REMARK   77  A    between atoms: _183  and  _184
REMARK   78  A    between atoms: _183  and  _186
REMARK   79  A    between atoms: _189  and  _191
REMARK   80  A    between atoms: _191  and  _192
REMARK   81  A    between atoms: _191  and  _194
REMARK   82  A    between atoms: _194  and  _195
REMARK   83  A    between atoms: _200  and  _202
REMARK   84  A    between atoms: _202  and  _203
REMARK   85  A    between atoms: _202  and  _205
REMARK   86  A    between atoms: _205  and  _206
REMARK   87  A    between atoms: _206  and  _207
REMARK   88  A    between atoms: _212  and  _214
REMARK   89  A    between atoms: _214  and  _215
REMARK   90  A    between atoms: _217  and  _219
REMARK   91  A    between atoms: _219  and  _220
REMARK   92  A    between atoms: _219  and  _222
REMARK   93  A    between atoms: _222  and  _223
REMARK   94  A    between atoms: _228  and  _230
REMARK   95  A    between atoms: _230  and  _231
REMARK   96  A    between atoms: _230  and  _233
REMARK   97  A    between atoms: _233  and  _234
REMARK   98  A    between atoms: _237  and  _239
REMARK   99  A    between atoms: _239  and  _240
REMARK  100  A    between atoms: _239  and  _242
REMARK  101  A    between atoms: _242  and  _243
REMARK  102  A    between atoms: _243  and  _244
REMARK                            x       y       z     vdW  Elec       q    Type
REMARK                         _______ _______ _______ _____ _____    ______ ____
ROOT
ATOM      1  C   LEU A   1      19.295   1.946  -7.426  0.00  0.00    +0.238 C 
ATOM      2  O   LEU A   1      19.362   2.348  -6.264  0.00  0.00    -0.274 OA
ATOM      3  N   GLN A   2      18.624   2.589  -8.377  0.00  0.00    -0.298 N 
ATOM      4  H   GLN A   2      18.656   2.228  -9.352  0.00  0.00    +0.150 HD
ENDROOT
BRANCH   1   5
ATOM      5  CA  LEU A   1      19.990   0.655  -7.851  0.00  0.00    +0.145 C 
BRANCH   5   6
ATOM      6  N   LEU A   1      21.353   0.544  -7.335  0.00  0.00    -0.238 NA
ATOM      7  H   LEU A   1      21.630  -0.313  -6.815  0.00  0.00    +0.142 HD
ENDBRANCH   5   6
BRANCH   5   8
ATOM      8  CB  LEU A   1      19.151  -0.550  -7.419  0.00  0.00    +0.026 C 
BRANCH   8   9
ATOM      9  CG  LEU A   1      17.785  -0.687  -8.097  0.00  0.00    +0.002 C 
ATOM     10  CD2 LEU A   1      16.965  -1.785  -7.439  0.00  0.00    +0.000 C 
ATOM     11  CD1 LEU A   1      17.955  -0.962  -9.583  0.00  0.00    +0.000 C 
ENDBRANCH   8   9
ENDBRANCH   5   8
ENDBRANCH   1   5
BRANCH   3  12
ATOM     12  CA  GLN A   2      17.845   3.787  -8.089  0.00  0.00    +0.137 C 
BRANCH  12  13
ATOM     13  C   GLN A   2      16.352   3.509  -8.212  0.00  0.00    +0.227 C 
ATOM     14  O   GLN A   2      15.913   2.761  -9.086  0.00  0.00    -0.286 OA
ENDBRANCH  12  13
BRANCH  12  15
ATOM     15  CB  GLN A   2      18.245   4.938  -9.016  0.00  0.00    +0.037 C 
BRANCH  15  16
ATOM     16  CG  GLN A   2      19.636   5.498  -8.759  0.00  0.00    +0.087 C 
BRANCH  16  17
ATOM     17  CD  GLN A   2      19.695   6.416  -7.550  0.00  0.00    +0.219 C 
ATOM     18  NE2 GLN A   2      18.735   6.404  -6.751  0.00  0.00    -0.329 N 
ATOM     19 HE21 GLN A   2      18.747   7.021  -5.914  0.00  0.00    +0.145 HD
ATOM     20 HE22 GLN A   2      17.923   5.777  -6.923  0.00  0.00    +0.145 HD
ATOM     21  OE1 GLN A   2      20.696   7.147  -7.396  0.00  0.00    -0.275 OA
ENDBRANCH  16  17
ENDBRANCH  15  16
ENDBRANCH  12  15
ENDBRANCH   3  12
TORSDOF 9
REMARK  Name = ../refined-set-2016/3g19/3g19_pocket.pdb
REMARK  102 active torsions:
REMARK  status: ('A' for Active; 'I' for Inactive)
REMARK    1  A    between atoms: _1  and  _3
REMARK    2  A    between atoms: _3  and  _4
REMARK    3  A    between atoms: _3  and  _6
REMARK    4  A    between atoms: _6  and  _7
REMARK    5  A    between atoms: _10  and  _12
REMARK    6  A    between atoms: _12  and  _13
REMARK    7  A    between atoms: _12  and  _15
REMARK    8  A    between atoms: _15  and  _16
REMARK    9  A    between atoms: _19  and  _21
REMARK   10  A    between atoms: _21  and  _22
REMARK   11  A    between atoms: _21  and  _24
REMARK   12  A    between atoms: _24  and  _25
REMARK   13  A    between atoms: _30  and  _32
REMARK   14  A    between atoms: _32  and  _33
REMARK   15  A    between atoms: _32  and  _35
REMARK   16  A    between atoms: _35  and  _36
REMARK   17  A    between atoms: _39  and  _41
REMARK   18  A    between atoms: _41  and  _42
REMARK   19  A    between atoms: _41  and  _44
REMARK   20  A    between atoms: _44  and  _45
REMARK   21  A    between atoms: _48  and  _50
REMARK   22  A    between atoms: _50  and  _51
REMARK   23  A    between atoms: _50  and  _53
REMARK   24  A    between atoms: _53  and  _54
REMARK   25  A    between atoms: _59  and  _60
REMARK   26  A    between atoms: _62  and  _64
REMARK   27  A    between atoms: _64  and  _65
REMARK   28  A    between atoms: _64  and  _67
REMARK   29  A    between atoms: _67  and  _68
REMARK   30  A    between atoms: _72  and  _73
REMARK   31  A    between atoms: _78  and  _80
REMARK   32  A    between atoms: _80  and  _81
REMARK   33  A    between atoms: _80  and  _83
REMARK   34  A    between atoms: _83  and  _84
REMARK   35  A    between atoms: _84  and  _85
REMARK   36  A    between atoms: _87  and  _89
REMARK   37  A    between atoms: _89  and  _90
REMARK   38  A    between atoms: _89  and  _92
REMARK   39  A    between atoms: _92  and  _93
REMARK   40  A    between atoms: _93  and  _94
REMARK   41  A    between atoms: _97  and  _99
REMARK   42  A    between atoms: _99  and  _100
REMARK   43  A    between atoms: _99  and  _102
REMARK   44  A    between atoms: _102  and  _103
REMARK   45  A    between atoms: _109  and  _111
REMARK   46  A    between atoms: _111  and  _112
REMARK   47  A    between atoms: _111  and  _114
REMARK   48  A    between atoms: _117  and  _119
REMARK   49  A    between atoms: _119  and  _120
REMARK   50  A    between atoms: _119  and  _122
REMARK   51  A    between atoms: _125  and  _127
REMARK   52  A    between atoms: _127  and  _128
REMARK   53  A    between atoms: _127  and  _130
REMARK   54  A    between atoms: _130  and  _131
REMARK   55  A    between atoms: _134  and  _136
REMARK   56  A    between atoms: _136  and  _137
REMARK   57  A    between atoms: _136  and  _139
REMARK   58  A    between atoms: _139  and  _140
REMARK   59  A    between atoms: _143  and  _145
REMARK   60  A    between atoms: _145  and  _146
REMARK   61  A    between atoms: _145  and  _148
REMARK   62  A    between atoms: _148  and  _149
REMARK   63  A    between atoms: _152  and  _154
REMARK   64  A    between atoms: _154  and  _155
REMARK   65  A    between atoms: _154  and  _157
REMARK   66  A    between atoms: _157  and  _158
REMARK   67  A    between atoms: _158  and  _159
REMARK   68  A    between atoms: _161  and  _163
REMARK   69  A    between atoms: _163  and  _164
REMARK   70  A    between atoms: _163  and  _166
REMARK   71  A    between atoms: _166  and  _167
REMARK   72  A    between atoms: _170  and  _172
REMARK   73  A    between atoms: _172  and  _173
REMARK   74  A    between atoms: _172  and  _175
REMARK   75  A    between atoms: _175  and  _176
REMARK   76  A    between atoms: _181  and  _183
REMARK   77  A    between atoms: _183  and  _184
REMARK   78  A    between atoms: _183  and  _186
REMARK   79  A    between atoms: _189  and  _191
REMARK   80  A    between atoms: _191  and  _192
REMARK   81  A    between atoms: _191  and  _194
REMARK   82  A    between atoms: _194  and  _195
REMARK   83  A    between atoms: _200  and  _202
REMARK   84  A    between atoms: _202  and  _203
REMARK   85  A    between atoms: _202  and  _205
REMARK   86  A    between atoms: _205  and  _206
REMARK   87  A    between atoms: _206  and  _207
REMARK   88  A    between atoms: _212  and  _214
REMARK   89  A    between atoms: _214  and  _215
REMARK   90  A    between atoms: _217  and  _219
REMARK   91  A    between atoms: _219  and  _220
REMARK   92  A    between atoms: _219  and  _222
REMARK   93  A    between atoms: _222  and  _223
REMARK   94  A    between atoms: _228  and  _230
REMARK   95  A    between atoms: _230  and  _231
REMARK   96  A    between atoms: _230  and  _233
REMARK   97  A    between atoms: _233  and  _234
REMARK   98  A    between atoms: _237  and  _239
REMARK   99  A    between atoms: _239  and  _240
REMARK  100  A    between atoms: _239  and  _242
REMARK  101  A    between atoms: _242  and  _243
REMARK  102  A    between atoms: _243  and  _244
REMARK                            x       y       z     vdW  Elec       q    Type
REMARK                         _______ _______ _______ _____ _____    ______ ____
ROOT
ATOM      1  O   HOH     1      19.510   1.939 -11.025  0.00  0.00    +0.000 OA
ENDROOT
TORSDOF 0
REMARK  Name = ../refined-set-2016/3g19/3g19_pocket.pdb
REMARK  102 active torsions:
REMARK  status: ('A' for Active; 'I' for Inactive)
REMARK    1  A    between atoms: _1  and  _3
REMARK    2  A    between atoms: _3  and  _4
REMARK    3  A    between atoms: _3  and  _6
REMARK    4  A    between atoms: _6  and  _7
REMARK    5  A    between atoms: _10  and  _12
REMARK    6  A    between atoms: _12  and  _13
REMARK    7  A    between atoms: _12  and  _15
REMARK    8  A    between atoms: _15  and  _16
REMARK    9  A    between atoms: _19  and  _21
REMARK   10  A    between atoms: _21  and  _22
REMARK   11  A    between atoms: _21  and  _24
REMARK   12  A    between atoms: _24  and  _25
REMARK   13  A    between atoms: _30  and  _32
REMARK   14  A    between atoms: _32  and  _33
REMARK   15  A    between atoms: _32  and  _35
REMARK   16  A    between atoms: _35  and  _36
REMARK   17  A    between atoms: _39  and  _41
REMARK   18  A    between atoms: _41  and  _42
REMARK   19  A    between atoms: _41  and  _44
REMARK   20  A    between atoms: _44  and  _45
REMARK   21  A    between atoms: _48  and  _50
REMARK   22  A    between atoms: _50  and  _51
REMARK   23  A    between atoms: _50  and  _53
REMARK   24  A    between atoms: _53  and  _54
REMARK   25  A    between atoms: _59  and  _60
REMARK   26  A    between atoms: _62  and  _64
REMARK   27  A    between atoms: _64  and  _65
REMARK   28  A    between atoms: _64  and  _67
REMARK   29  A    between atoms: _67  and  _68
REMARK   30  A    between atoms: _72  and  _73
REMARK   31  A    between atoms: _78  and  _80
REMARK   32  A    between atoms: _80  and  _81
REMARK   33  A    between atoms: _80  and  _83
REMARK   34  A    between atoms: _83  and  _84
REMARK   35  A    between atoms: _84  and  _85
REMARK   36  A    between atoms: _87  and  _89
REMARK   37  A    between atoms: _89  and  _90
REMARK   38  A    between atoms: _89  and  _92
REMARK   39  A    between atoms: _92  and  _93
REMARK   40  A    between atoms: _93  and  _94
REMARK   41  A    between atoms: _97  and  _99
REMARK   42  A    between atoms: _99  and  _100
REMARK   43  A    between atoms: _99  and  _102
REMARK   44  A    between atoms: _102  and  _103
REMARK   45  A    between atoms: _109  and  _111
REMARK   46  A    between atoms: _111  and  _112
REMARK   47  A    between atoms: _111  and  _114
REMARK   48  A    between atoms: _117  and  _119
REMARK   49  A    between atoms: _119  and  _120
REMARK   50  A    between atoms: _119  and  _122
REMARK   51  A    between atoms: _125  and  _127
REMARK   52  A    between atoms: _127  and  _128
REMARK   53  A    between atoms: _127  and  _130
REMARK   54  A    between atoms: _130  and  _131
REMARK   55  A    between atoms: _134  and  _136
REMARK   56  A    between atoms: _136  and  _137
REMARK   57  A    between atoms: _136  and  _139
REMARK   58  A    between atoms: _139  and  _140
REMARK   59  A    between atoms: _143  and  _145
REMARK   60  A    between atoms: _145  and  _146
REMARK   61  A    between atoms: _145  and  _148
REMARK   62  A    between atoms: _148  and  _149
REMARK   63  A    between atoms: _152  and  _154
REMARK   64  A    between atoms: _154  and  _155
REMARK   65  A    between atoms: _154  and  _157
REMARK   66  A    between atoms: _157  and  _158
REMARK   67  A    between atoms: _158  and  _159
REMARK   68  A    between atoms: _161  and  _163
REMARK   69  A    between atoms: _163  and  _164
REMARK   70  A    between atoms: _163  and  _166
REMARK   71  A    between atoms: _166  and  _167
REMARK   72  A    between atoms: _170  and  _172
REMARK   73  A    between atoms: _172  and  _173
REMARK   74  A    between atoms: _172  and  _175
REMARK   75  A    between atoms: _175  and  _176
REMARK   76  A    between atoms: _181  and  _183
REMARK   77  A    between atoms: _183  and  _184
REMARK   78  A    between atoms: _183  and  _186
REMARK   79  A    between atoms: _189  and  _191
REMARK   80  A    between atoms: _191  and  _192
REMARK   81  A    between atoms: _191  and  _194
REMARK   82  A    between atoms: _194  and  _195
REMARK   83  A    between atoms: _200  and  _202
REMARK   84  A    between atoms: _202  and  _203
REMARK   85  A    between atoms: _202  and  _205
REMARK   86  A    between atoms: _205  and  _206
REMARK   87  A    between atoms: _206  and  _207
REMARK   88  A    between atoms: _212  and  _214
REMARK   89  A    between atoms: _214  and  _215
REMARK   90  A    between atoms: _217  and  _219
REMARK   91  A    between atoms: _219  and  _220
REMARK   92  A    between atoms: _219  and  _222
REMARK   93  A    between atoms: _222  and  _223
REMARK   94  A    between atoms: _228  and  _230
REMARK   95  A    between atoms: _230  and  _231
REMARK   96  A    between atoms: _230  and  _233
REMARK   97  A    between atoms: _233  and  _234
REMARK   98  A    between atoms: _237  and  _239
REMARK   99  A    between atoms: _239  and  _240
REMARK  100  A    between atoms: _239  and  _242
REMARK  101  A    between atoms: _242  and  _243
REMARK  102  A    between atoms: _243  and  _244
REMARK                            x       y       z     vdW  Elec       q    Type
REMARK                         _______ _______ _______ _____ _____    ______ ____
ROOT
ATOM      1  O   HOH     1      21.380 -11.450 -11.315  0.00  0.00    +0.000 OA
ENDROOT
TORSDOF 0
REMARK  Name = ../refined-set-2016/3g19/3g19_pocket.pdb
REMARK  102 active torsions:
REMARK  status: ('A' for Active; 'I' for Inactive)
REMARK    1  A    between atoms: _1  and  _3
REMARK    2  A    between atoms: _3  and  _4
REMARK    3  A    between atoms: _3  and  _6
REMARK    4  A    between atoms: _6  and  _7
REMARK    5  A    between atoms: _10  and  _12
REMARK    6  A    between atoms: _12  and  _13
REMARK    7  A    between atoms: _12  and  _15
REMARK    8  A    between atoms: _15  and  _16
REMARK    9  A    between atoms: _19  and  _21
REMARK   10  A    between atoms: _21  and  _22
REMARK   11  A    between atoms: _21  and  _24
REMARK   12  A    between atoms: _24  and  _25
REMARK   13  A    between atoms: _30  and  _32
REMARK   14  A    between atoms: _32  and  _33
REMARK   15  A    between atoms: _32  and  _35
REMARK   16  A    between atoms: _35  and  _36
REMARK   17  A    between atoms: _39  and  _41
REMARK   18  A    between atoms: _41  and  _42
REMARK   19  A    between atoms: _41  and  _44
REMARK   20  A    between atoms: _44  and  _45
REMARK   21  A    between atoms: _48  and  _50
REMARK   22  A    between atoms: _50  and  _51
REMARK   23  A    between atoms: _50  and  _53
REMARK   24  A    between atoms: _53  and  _54
REMARK   25  A    between atoms: _59  and  _60
REMARK   26  A    between atoms: _62  and  _64
REMARK   27  A    between atoms: _64  and  _65
REMARK   28  A    between atoms: _64  and  _67
REMARK   29  A    between atoms: _67  and  _68
REMARK   30  A    between atoms: _72  and  _73
REMARK   31  A    between atoms: _78  and  _80
REMARK   32  A    between atoms: _80  and  _81
REMARK   33  A    between atoms: _80  and  _83
REMARK   34  A    between atoms: _83  and  _84
REMARK   35  A    between atoms: _84  and  _85
REMARK   36  A    between atoms: _87  and  _89
REMARK   37  A    between atoms: _89  and  _90
REMARK   38  A    between atoms: _89  and  _92
REMARK   39  A    between atoms: _92  and  _93
REMARK   40  A    between atoms: _93  and  _94
REMARK   41  A    between atoms: _97  and  _99
REMARK   42  A    between atoms: _99  and  _100
REMARK   43  A    between atoms: _99  and  _102
REMARK   44  A    between atoms: _102  and  _103
REMARK   45  A    between atoms: _109  and  _111
REMARK   46  A    between atoms: _111  and  _112
REMARK   47  A    between atoms: _111  and  _114
REMARK   48  A    between atoms: _117  and  _119
REMARK   49  A    between atoms: _119  and  _120
REMARK   50  A    between atoms: _119  and  _122
REMARK   51  A    between atoms: _125  and  _127
REMARK   52  A    between atoms: _127  and  _128
REMARK   53  A    between atoms: _127  and  _130
REMARK   54  A    between atoms: _130  and  _131
REMARK   55  A    between atoms: _134  and  _136
REMARK   56  A    between atoms: _136  and  _137
REMARK   57  A    between atoms: _136  and  _139
REMARK   58  A    between atoms: _139  and  _140
REMARK   59  A    between atoms: _143  and  _145
REMARK   60  A    between atoms: _145  and  _146
REMARK   61  A    between atoms: _145  and  _148
REMARK   62  A    between atoms: _148  and  _149
REMARK   63  A    between atoms: _152  and  _154
REMARK   64  A    between atoms: _154  and  _155
REMARK   65  A    between atoms: _154  and  _157
REMARK   66  A    between atoms: _157  and  _158
REMARK   67  A    between atoms: _158  and  _159
REMARK   68  A    between atoms: _161  and  _163
REMARK   69  A    between atoms: _163  and  _164
REMARK   70  A    between atoms: _163  and  _166
REMARK   71  A    between atoms: _166  and  _167
REMARK   72  A    between atoms: _170  and  _172
REMARK   73  A    between atoms: _172  and  _173
REMARK   74  A    between atoms: _172  and  _175
REMARK   75  A    between atoms: _175  and  _176
REMARK   76  A    between atoms: _181  and  _183
REMARK   77  A    between atoms: _183  and  _184
REMARK   78  A    between atoms: _183  and  _186
REMARK   79  A    between atoms: _189  and  _191
REMARK   80  A    between atoms: _191  and  _192
REMARK   81  A    between atoms: _191  and  _194
REMARK   82  A    between atoms: _194  and  _195
REMARK   83  A    between atoms: _200  and  _202
REMARK   84  A    between atoms: _202  and  _203
REMARK   85  A    between atoms: _202  and  _205
REMARK   86  A    between atoms: _205  and  _206
REMARK   87  A    between atoms: _206  and  _207
REMARK   88  A    between atoms: _212  and  _214
REMARK   89  A    between atoms: _214  and  _215
REMARK   90  A    between atoms: _217  and  _219
REMARK   91  A    between atoms: _219  and  _220
REMARK   92  A    between atoms: _219  and  _222
REMARK   93  A    between atoms: _222  and  _223
REMARK   94  A    between atoms: _228  and  _230
REMARK   95  A    between atoms: _230  and  _231
REMARK   96  A    between atoms: _230  and  _233
REMARK   97  A    between atoms: _233  and  _234
REMARK   98  A    between atoms: _237  and  _239
REMARK   99  A    between atoms: _239  and  _240
REMARK  100  A    between atoms: _239  and  _242
REMARK  101  A    between atoms: _242  and  _243
REMARK  102  A    between atoms: _243  and  _244
REMARK                            x       y       z     vdW  Elec       q    Type
REMARK                         _______ _______ _______ _____ _____    ______ ____
ROOT
ATOM      1  O   HOH     1      26.284  -4.248  -7.619  0.00  0.00    +0.000 OA
ENDROOT
TORSDOF 0
REMARK  Name = ../refined-set-2016/3g19/3g19_pocket.pdb
REMARK  102 active torsions:
REMARK  status: ('A' for Active; 'I' for Inactive)
REMARK    1  A    between atoms: _1  and  _3
REMARK    2  A    between atoms: _3  and  _4
REMARK    3  A    between atoms: _3  and  _6
REMARK    4  A    between atoms: _6  and  _7
REMARK    5  A    between atoms: _10  and  _12
REMARK    6  A    between atoms: _12  and  _13
REMARK    7  A    between atoms: _12  and  _15
REMARK    8  A    between atoms: _15  and  _16
REMARK    9  A    between atoms: _19  and  _21
REMARK   10  A    between atoms: _21  and  _22
REMARK   11  A    between atoms: _21  and  _24
REMARK   12  A    between atoms: _24  and  _25
REMARK   13  A    between atoms: _30  and  _32
REMARK   14  A    between atoms: _32  and  _33
REMARK   15  A    between atoms: _32  and  _35
REMARK   16  A    between atoms: _35  and  _36
REMARK   17  A    between atoms: _39  and  _41
REMARK   18  A    between atoms: _41  and  _42
REMARK   19  A    between atoms: _41  and  _44
REMARK   20  A    between atoms: _44  and  _45
REMARK   21  A    between atoms: _48  and  _50
REMARK   22  A    between atoms: _50  and  _51
REMARK   23  A    between atoms: _50  and  _53
REMARK   24  A    between atoms: _53  and  _54
REMARK   25  A    between atoms: _59  and  _60
REMARK   26  A    between atoms: _62  and  _64
REMARK   27  A    between atoms: _64  and  _65
REMARK   28  A    between atoms: _64  and  _67
REMARK   29  A    between atoms: _67  and  _68
REMARK   30  A    between atoms: _72  and  _73
REMARK   31  A    between atoms: _78  and  _80
REMARK   32  A    between atoms: _80  and  _81
REMARK   33  A    between atoms: _80  and  _83
REMARK   34  A    between atoms: _83  and  _84
REMARK   35  A    between atoms: _84  and  _85
REMARK   36  A    between atoms: _87  and  _89
REMARK   37  A    between atoms: _89  and  _90
REMARK   38  A    between atoms: _89  and  _92
REMARK   39  A    between atoms: _92  and  _93
REMARK   40  A    between atoms: _93  and  _94
REMARK   41  A    between atoms: _97  and  _99
REMARK   42  A    between atoms: _99  and  _100
REMARK   43  A    between atoms: _99  and  _102
REMARK   44  A    between atoms: _102  and  _103
REMARK   45  A    between atoms: _109  and  _111
REMARK   46  A    between atoms: _111  and  _112
REMARK   47  A    between atoms: _111  and  _114
REMARK   48  A    between atoms: _117  and  _119
REMARK   49  A    between atoms: _119  and  _120
REMARK   50  A    between atoms: _119  and  _122
REMARK   51  A    between atoms: _125  and  _127
REMARK   52  A    between atoms: _127  and  _128
REMARK   53  A    between atoms: _127  and  _130
REMARK   54  A    between atoms: _130  and  _131
REMARK   55  A    between atoms: _134  and  _136
REMARK   56  A    between atoms: _136  and  _137
REMARK   57  A    between atoms: _136  and  _139
REMARK   58  A    between atoms: _139  and  _140
REMARK   59  A    between atoms: _143  and  _145
REMARK   60  A    between atoms: _145  and  _146
REMARK   61  A    between atoms: _145  and  _148
REMARK   62  A    between atoms: _148  and  _149
REMARK   63  A    between atoms: _152  and  _154
REMARK   64  A    between atoms: _154  and  _155
REMARK   65  A    between atoms: _154  and  _157
REMARK   66  A    between atoms: _157  and  _158
REMARK   67  A    between atoms: _158  and  _159
REMARK   68  A    between atoms: _161  and  _163
REMARK   69  A    between atoms: _163  and  _164
REMARK   70  A    between atoms: _163  and  _166
REMARK   71  A    between atoms: _166  and  _167
REMARK   72  A    between atoms: _170  and  _172
REMARK   73  A    between atoms: _172  and  _173
REMARK   74  A    between atoms: _172  and  _175
REMARK   75  A    between atoms: _175  and  _176
REMARK   76  A    between atoms: _181  and  _183
REMARK   77  A    between atoms: _183  and  _184
REMARK   78  A    between atoms: _183  and  _186
REMARK   79  A    between atoms: _189  and  _191
REMARK   80  A    between atoms: _191  and  _192
REMARK   81  A    between atoms: _191  and  _194
REMARK   82  A    between atoms: _194  and  _195
REMARK   83  A    between atoms: _200  and  _202
REMARK   84  A    between atoms: _202  and  _203
REMARK   85  A    between atoms: _202  and  _205
REMARK   86  A    between atoms: _205  and  _206
REMARK   87  A    between atoms: _206  and  _207
REMARK   88  A    between atoms: _212  and  _214
REMARK   89  A    between atoms: _214  and  _215
REMARK   90  A    between atoms: _217  and  _219
REMARK   91  A    between atoms: _219  and  _220
REMARK   92  A    between atoms: _219  and  _222
REMARK   93  A    between atoms: _222  and  _223
REMARK   94  A    between atoms: _228  and  _230
REMARK   95  A    between atoms: _230  and  _231
REMARK   96  A    between atoms: _230  and  _233
REMARK   97  A    between atoms: _233  and  _234
REMARK   98  A    between atoms: _237  and  _239
REMARK   99  A    between atoms: _239  and  _240
REMARK  100  A    between atoms: _239  and  _242
REMARK  101  A    between atoms: _242  and  _243
REMARK  102  A    between atoms: _243  and  _244
REMARK                            x       y       z     vdW  Elec       q    Type
REMARK                         _______ _______ _______ _____ _____    ______ ____
ROOT
ATOM      1  O   HOH     1      24.713   2.472 -14.601  0.00  0.00    +0.000 OA
ENDROOT
TORSDOF 0
REMARK  Name = ../refined-set-2016/3g19/3g19_pocket.pdb
REMARK  102 active torsions:
REMARK  status: ('A' for Active; 'I' for Inactive)
REMARK    1  A    between atoms: _1  and  _3
REMARK    2  A    between atoms: _3  and  _4
REMARK    3  A    between atoms: _3  and  _6
REMARK    4  A    between atoms: _6  and  _7
REMARK    5  A    between atoms: _10  and  _12
REMARK    6  A    between atoms: _12  and  _13
REMARK    7  A    between atoms: _12  and  _15
REMARK    8  A    between atoms: _15  and  _16
REMARK    9  A    between atoms: _19  and  _21
REMARK   10  A    between atoms: _21  and  _22
REMARK   11  A    between atoms: _21  and  _24
REMARK   12  A    between atoms: _24  and  _25
REMARK   13  A    between atoms: _30  and  _32
REMARK   14  A    between atoms: _32  and  _33
REMARK   15  A    between atoms: _32  and  _35
REMARK   16  A    between atoms: _35  and  _36
REMARK   17  A    between atoms: _39  and  _41
REMARK   18  A    between atoms: _41  and  _42
REMARK   19  A    between atoms: _41  and  _44
REMARK   20  A    between atoms: _44  and  _45
REMARK   21  A    between atoms: _48  and  _50
REMARK   22  A    between atoms: _50  and  _51
REMARK   23  A    between atoms: _50  and  _53
REMARK   24  A    between atoms: _53  and  _54
REMARK   25  A    between atoms: _59  and  _60
REMARK   26  A    between atoms: _62  and  _64
REMARK   27  A    between atoms: _64  and  _65
REMARK   28  A    between atoms: _64  and  _67
REMARK   29  A    between atoms: _67  and  _68
REMARK   30  A    between atoms: _72  and  _73
REMARK   31  A    between atoms: _78  and  _80
REMARK   32  A    between atoms: _80  and  _81
REMARK   33  A    between atoms: _80  and  _83
REMARK   34  A    between atoms: _83  and  _84
REMARK   35  A    between atoms: _84  and  _85
REMARK   36  A    between atoms: _87  and  _89
REMARK   37  A    between atoms: _89  and  _90
REMARK   38  A    between atoms: _89  and  _92
REMARK   39  A    between atoms: _92  and  _93
REMARK   40  A    between atoms: _93  and  _94
REMARK   41  A    between atoms: _97  and  _99
REMARK   42  A    between atoms: _99  and  _100
REMARK   43  A    between atoms: _99  and  _102
REMARK   44  A    between atoms: _102  and  _103
REMARK   45  A    between atoms: _109  and  _111
REMARK   46  A    between atoms: _111  and  _112
REMARK   47  A    between atoms: _111  and  _114
REMARK   48  A    between atoms: _117  and  _119
REMARK   49  A    between atoms: _119  and  _120
REMARK   50  A    between atoms: _119  and  _122
REMARK   51  A    between atoms: _125  and  _127
REMARK   52  A    between atoms: _127  and  _128
REMARK   53  A    between atoms: _127  and  _130
REMARK   54  A    between atoms: _130  and  _131
REMARK   55  A    between atoms: _134  and  _136
REMARK   56  A    between atoms: _136  and  _137
REMARK   57  A    between atoms: _136  and  _139
REMARK   58  A    between atoms: _139  and  _140
REMARK   59  A    between atoms: _143  and  _145
REMARK   60  A    between atoms: _145  and  _146
REMARK   61  A    between atoms: _145  and  _148
REMARK   62  A    between atoms: _148  and  _149
REMARK   63  A    between atoms: _152  and  _154
REMARK   64  A    between atoms: _154  and  _155
REMARK   65  A    between atoms: _154  and  _157
REMARK   66  A    between atoms: _157  and  _158
REMARK   67  A    between atoms: _158  and  _159
REMARK   68  A    between atoms: _161  and  _163
REMARK   69  A    between atoms: _163  and  _164
REMARK   70  A    between atoms: _163  and  _166
REMARK   71  A    between atoms: _166  and  _167
REMARK   72  A    between atoms: _170  and  _172
REMARK   73  A    between atoms: _172  and  _173
REMARK   74  A    between atoms: _172  and  _175
REMARK   75  A    between atoms: _175  and  _176
REMARK   76  A    between atoms: _181  and  _183
REMARK   77  A    between atoms: _183  and  _184
REMARK   78  A    between atoms: _183  and  _186
REMARK   79  A    between atoms: _189  and  _191
REMARK   80  A    between atoms: _191  and  _192
REMARK   81  A    between atoms: _191  and  _194
REMARK   82  A    between atoms: _194  and  _195
REMARK   83  A    between atoms: _200  and  _202
REMARK   84  A    between atoms: _202  and  _203
REMARK   85  A    between atoms: _202  and  _205
REMARK   86  A    between atoms: _205  and  _206
REMARK   87  A    between atoms: _206  and  _207
REMARK   88  A    between atoms: _212  and  _214
REMARK   89  A    between atoms: _214  and  _215
REMARK   90  A    between atoms: _217  and  _219
REMARK   91  A    between atoms: _219  and  _220
REMARK   92  A    between atoms: _219  and  _222
REMARK   93  A    between atoms: _222  and  _223
REMARK   94  A    between atoms: _228  and  _230
REMARK   95  A    between atoms: _230  and  _231
REMARK   96  A    between atoms: _230  and  _233
REMARK   97  A    between atoms: _233  and  _234
REMARK   98  A    between atoms: _237  and  _239
REMARK   99  A    between atoms: _239  and  _240
REMARK  100  A    between atoms: _239  and  _242
REMARK  101  A    between atoms: _242  and  _243
REMARK  102  A    between atoms: _243  and  _244
REMARK                            x       y       z     vdW  Elec       q    Type
REMARK                         _______ _______ _______ _____ _____    ______ ____
ROOT
ATOM      1  O   HOH     1      22.627  -2.889 -18.161  0.00  0.00    +0.000 OA
ENDROOT
TORSDOF 0
REMARK  Name = ../refined-set-2016/3g19/3g19_pocket.pdb
REMARK  102 active torsions:
REMARK  status: ('A' for Active; 'I' for Inactive)
REMARK    1  A    between atoms: _1  and  _3
REMARK    2  A    between atoms: _3  and  _4
REMARK    3  A    between atoms: _3  and  _6
REMARK    4  A    between atoms: _6  and  _7
REMARK    5  A    between atoms: _10  and  _12
REMARK    6  A    between atoms: _12  and  _13
REMARK    7  A    between atoms: _12  and  _15
REMARK    8  A    between atoms: _15  and  _16
REMARK    9  A    between atoms: _19  and  _21
REMARK   10  A    between atoms: _21  and  _22
REMARK   11  A    between atoms: _21  and  _24
REMARK   12  A    between atoms: _24  and  _25
REMARK   13  A    between atoms: _30  and  _32
REMARK   14  A    between atoms: _32  and  _33
REMARK   15  A    between atoms: _32  and  _35
REMARK   16  A    between atoms: _35  and  _36
REMARK   17  A    between atoms: _39  and  _41
REMARK   18  A    between atoms: _41  and  _42
REMARK   19  A    between atoms: _41  and  _44
REMARK   20  A    between atoms: _44  and  _45
REMARK   21  A    between atoms: _48  and  _50
REMARK   22  A    between atoms: _50  and  _51
REMARK   23  A    between atoms: _50  and  _53
REMARK   24  A    between atoms: _53  and  _54
REMARK   25  A    between atoms: _59  and  _60
REMARK   26  A    between atoms: _62  and  _64
REMARK   27  A    between atoms: _64  and  _65
REMARK   28  A    between atoms: _64  and  _67
REMARK   29  A    between atoms: _67  and  _68
REMARK   30  A    between atoms: _72  and  _73
REMARK   31  A    between atoms: _78  and  _80
REMARK   32  A    between atoms: _80  and  _81
REMARK   33  A    between atoms: _80  and  _83
REMARK   34  A    between atoms: _83  and  _84
REMARK   35  A    between atoms: _84  and  _85
REMARK   36  A    between atoms: _87  and  _89
REMARK   37  A    between atoms: _89  and  _90
REMARK   38  A    between atoms: _89  and  _92
REMARK   39  A    between atoms: _92  and  _93
REMARK   40  A    between atoms: _93  and  _94
REMARK   41  A    between atoms: _97  and  _99
REMARK   42  A    between atoms: _99  and  _100
REMARK   43  A    between atoms: _99  and  _102
REMARK   44  A    between atoms: _102  and  _103
REMARK   45  A    between atoms: _109  and  _111
REMARK   46  A    between atoms: _111  and  _112
REMARK   47  A    between atoms: _111  and  _114
REMARK   48  A    between atoms: _117  and  _119
REMARK   49  A    between atoms: _119  and  _120
REMARK   50  A    between atoms: _119  and  _122
REMARK   51  A    between atoms: _125  and  _127
REMARK   52  A    between atoms: _127  and  _128
REMARK   53  A    between atoms: _127  and  _130
REMARK   54  A    between atoms: _130  and  _131
REMARK   55  A    between atoms: _134  and  _136
REMARK   56  A    between atoms: _136  and  _137
REMARK   57  A    between atoms: _136  and  _139
REMARK   58  A    between atoms: _139  and  _140
REMARK   59  A    between atoms: _143  and  _145
REMARK   60  A    between atoms: _145  and  _146
REMARK   61  A    between atoms: _145  and  _148
REMARK   62  A    between atoms: _148  and  _149
REMARK   63  A    between atoms: _152  and  _154
REMARK   64  A    between atoms: _154  and  _155
REMARK   65  A    between atoms: _154  and  _157
REMARK   66  A    between atoms: _157  and  _158
REMARK   67  A    between atoms: _158  and  _159
REMARK   68  A    between atoms: _161  and  _163
REMARK   69  A    between atoms: _163  and  _164
REMARK   70  A    between atoms: _163  and  _166
REMARK   71  A    between atoms: _166  and  _167
REMARK   72  A    between atoms: _170  and  _172
REMARK   73  A    between atoms: _172  and  _173
REMARK   74  A    between atoms: _172  and  _175
REMARK   75  A    between atoms: _175  and  _176
REMARK   76  A    between atoms: _181  and  _183
REMARK   77  A    between atoms: _183  and  _184
REMARK   78  A    between atoms: _183  and  _186
REMARK   79  A    between atoms: _189  and  _191
REMARK   80  A    between atoms: _191  and  _192
REMARK   81  A    between atoms: _191  and  _194
REMARK   82  A    between atoms: _194  and  _195
REMARK   83  A    between atoms: _200  and  _202
REMARK   84  A    between atoms: _202  and  _203
REMARK   85  A    between atoms: _202  and  _205
REMARK   86  A    between atoms: _205  and  _206
REMARK   87  A    between atoms: _206  and  _207
REMARK   88  A    between atoms: _212  and  _214
REMARK   89  A    between atoms: _214  and  _215
REMARK   90  A    between atoms: _217  and  _219
REMARK   91  A    between atoms: _219  and  _220
REMARK   92  A    between atoms: _219  and  _222
REMARK   93  A    between atoms: _222  and  _223
REMARK   94  A    between atoms: _228  and  _230
REMARK   95  A    between atoms: _230  and  _231
REMARK   96  A    between atoms: _230  and  _233
REMARK   97  A    between atoms: _233  and  _234
REMARK   98  A    between atoms: _237  and  _239
REMARK   99  A    between atoms: _239  and  _240
REMARK  100  A    between atoms: _239  and  _242
REMARK  101  A    between atoms: _242  and  _243
REMARK  102  A    between atoms: _243  and  _244
REMARK                            x       y       z     vdW  Elec       q    Type
REMARK                         _______ _______ _______ _____ _____    ______ ____
ROOT
ATOM      1  O   HOH     1      28.951  -3.892 -15.486  0.00  0.00    +0.000 OA
ENDROOT
TORSDOF 0
REMARK  Name = ../refined-set-2016/3g19/3g19_pocket.pdb
REMARK  102 active torsions:
REMARK  status: ('A' for Active; 'I' for Inactive)
REMARK    1  A    between atoms: _1  and  _3
REMARK    2  A    between atoms: _3  and  _4
REMARK    3  A    between atoms: _3  and  _6
REMARK    4  A    between atoms: _6  and  _7
REMARK    5  A    between atoms: _10  and  _12
REMARK    6  A    between atoms: _12  and  _13
REMARK    7  A    between atoms: _12  and  _15
REMARK    8  A    between atoms: _15  and  _16
REMARK    9  A    between atoms: _19  and  _21
REMARK   10  A    between atoms: _21  and  _22
REMARK   11  A    between atoms: _21  and  _24
REMARK   12  A    between atoms: _24  and  _25
REMARK   13  A    between atoms: _30  and  _32
REMARK   14  A    between atoms: _32  and  _33
REMARK   15  A    between atoms: _32  and  _35
REMARK   16  A    between atoms: _35  and  _36
REMARK   17  A    between atoms: _39  and  _41
REMARK   18  A    between atoms: _41  and  _42
REMARK   19  A    between atoms: _41  and  _44
REMARK   20  A    between atoms: _44  and  _45
REMARK   21  A    between atoms: _48  and  _50
REMARK   22  A    between atoms: _50  and  _51
REMARK   23  A    between atoms: _50  and  _53
REMARK   24  A    between atoms: _53  and  _54
REMARK   25  A    between atoms: _59  and  _60
REMARK   26  A    between atoms: _62  and  _64
REMARK   27  A    between atoms: _64  and  _65
REMARK   28  A    between atoms: _64  and  _67
REMARK   29  A    between atoms: _67  and  _68
REMARK   30  A    between atoms: _72  and  _73
REMARK   31  A    between atoms: _78  and  _80
REMARK   32  A    between atoms: _80  and  _81
REMARK   33  A    between atoms: _80  and  _83
REMARK   34  A    between atoms: _83  and  _84
REMARK   35  A    between atoms: _84  and  _85
REMARK   36  A    between atoms: _87  and  _89
REMARK   37  A    between atoms: _89  and  _90
REMARK   38  A    between atoms: _89  and  _92
REMARK   39  A    between atoms: _92  and  _93
REMARK   40  A    between atoms: _93  and  _94
REMARK   41  A    between atoms: _97  and  _99
REMARK   42  A    between atoms: _99  and  _100
REMARK   43  A    between atoms: _99  and  _102
REMARK   44  A    between atoms: _102  and  _103
REMARK   45  A    between atoms: _109  and  _111
REMARK   46  A    between atoms: _111  and  _112
REMARK   47  A    between atoms: _111  and  _114
REMARK   48  A    between atoms: _117  and  _119
REMARK   49  A    between atoms: _119  and  _120
REMARK   50  A    between atoms: _119  and  _122
REMARK   51  A    between atoms: _125  and  _127
REMARK   52  A    between atoms: _127  and  _128
REMARK   53  A    between atoms: _127  and  _130
REMARK   54  A    between atoms: _130  and  _131
REMARK   55  A    between atoms: _134  and  _136
REMARK   56  A    between atoms: _136  and  _137
REMARK   57  A    between atoms: _136  and  _139
REMARK   58  A    between atoms: _139  and  _140
REMARK   59  A    between atoms: _143  and  _145
REMARK   60  A    between atoms: _145  and  _146
REMARK   61  A    between atoms: _145  and  _148
REMARK   62  A    between atoms: _148  and  _149
REMARK   63  A    between atoms: _152  and  _154
REMARK   64  A    between atoms: _154  and  _155
REMARK   65  A    between atoms: _154  and  _157
REMARK   66  A    between atoms: _157  and  _158
REMARK   67  A    between atoms: _158  and  _159
REMARK   68  A    between atoms: _161  and  _163
REMARK   69  A    between atoms: _163  and  _164
REMARK   70  A    between atoms: _163  and  _166
REMARK   71  A    between atoms: _166  and  _167
REMARK   72  A    between atoms: _170  and  _172
REMARK   73  A    between atoms: _172  and  _173
REMARK   74  A    between atoms: _172  and  _175
REMARK   75  A    between atoms: _175  and  _176
REMARK   76  A    between atoms: _181  and  _183
REMARK   77  A    between atoms: _183  and  _184
REMARK   78  A    between atoms: _183  and  _186
REMARK   79  A    between atoms: _189  and  _191
REMARK   80  A    between atoms: _191  and  _192
REMARK   81  A    between atoms: _191  and  _194
REMARK   82  A    between atoms: _194  and  _195
REMARK   83  A    between atoms: _200  and  _202
REMARK   84  A    between atoms: _202  and  _203
REMARK   85  A    between atoms: _202  and  _205
REMARK   86  A    between atoms: _205  and  _206
REMARK   87  A    between atoms: _206  and  _207
REMARK   88  A    between atoms: _212  and  _214
REMARK   89  A    between atoms: _214  and  _215
REMARK   90  A    between atoms: _217  and  _219
REMARK   91  A    between atoms: _219  and  _220
REMARK   92  A    between atoms: _219  and  _222
REMARK   93  A    between atoms: _222  and  _223
REMARK   94  A    between atoms: _228  and  _230
REMARK   95  A    between atoms: _230  and  _231
REMARK   96  A    between atoms: _230  and  _233
REMARK   97  A    between atoms: _233  and  _234
REMARK   98  A    between atoms: _237  and  _239
REMARK   99  A    between atoms: _239  and  _240
REMARK  100  A    between atoms: _239  and  _242
REMARK  101  A    between atoms: _242  and  _243
REMARK  102  A    between atoms: _243  and  _244
REMARK                            x       y       z     vdW  Elec       q    Type
REMARK                         _______ _______ _______ _____ _____    ______ ____
ROOT
ATOM      1  O   HOH     1      20.755  -3.051 -20.177  0.00  0.00    +0.000 OA
ENDROOT
TORSDOF 0
REMARK  Name = ../refined-set-2016/3g19/3g19_pocket.pdb
REMARK  102 active torsions:
REMARK  status: ('A' for Active; 'I' for Inactive)
REMARK    1  A    between atoms: _1  and  _3
REMARK    2  A    between atoms: _3  and  _4
REMARK    3  A    between atoms: _3  and  _6
REMARK    4  A    between atoms: _6  and  _7
REMARK    5  A    between atoms: _10  and  _12
REMARK    6  A    between atoms: _12  and  _13
REMARK    7  A    between atoms: _12  and  _15
REMARK    8  A    between atoms: _15  and  _16
REMARK    9  A    between atoms: _19  and  _21
REMARK   10  A    between atoms: _21  and  _22
REMARK   11  A    between atoms: _21  and  _24
REMARK   12  A    between atoms: _24  and  _25
REMARK   13  A    between atoms: _30  and  _32
REMARK   14  A    between atoms: _32  and  _33
REMARK   15  A    between atoms: _32  and  _35
REMARK   16  A    between atoms: _35  and  _36
REMARK   17  A    between atoms: _39  and  _41
REMARK   18  A    between atoms: _41  and  _42
REMARK   19  A    between atoms: _41  and  _44
REMARK   20  A    between atoms: _44  and  _45
REMARK   21  A    between atoms: _48  and  _50
REMARK   22  A    between atoms: _50  and  _51
REMARK   23  A    between atoms: _50  and  _53
REMARK   24  A    between atoms: _53  and  _54
REMARK   25  A    between atoms: _59  and  _60
REMARK   26  A    between atoms: _62  and  _64
REMARK   27  A    between atoms: _64  and  _65
REMARK   28  A    between atoms: _64  and  _67
REMARK   29  A    between atoms: _67  and  _68
REMARK   30  A    between atoms: _72  and  _73
REMARK   31  A    between atoms: _78  and  _80
REMARK   32  A    between atoms: _80  and  _81
REMARK   33  A    between atoms: _80  and  _83
REMARK   34  A    between atoms: _83  and  _84
REMARK   35  A    between atoms: _84  and  _85
REMARK   36  A    between atoms: _87  and  _89
REMARK   37  A    between atoms: _89  and  _90
REMARK   38  A    between atoms: _89  and  _92
REMARK   39  A    between atoms: _92  and  _93
REMARK   40  A    between atoms: _93  and  _94
REMARK   41  A    between atoms: _97  and  _99
REMARK   42  A    between atoms: _99  and  _100
REMARK   43  A    between atoms: _99  and  _102
REMARK   44  A    between atoms: _102  and  _103
REMARK   45  A    between atoms: _109  and  _111
REMARK   46  A    between atoms: _111  and  _112
REMARK   47  A    between atoms: _111  and  _114
REMARK   48  A    between atoms: _117  and  _119
REMARK   49  A    between atoms: _119  and  _120
REMARK   50  A    between atoms: _119  and  _122
REMARK   51  A    between atoms: _125  and  _127
REMARK   52  A    between atoms: _127  and  _128
REMARK   53  A    between atoms: _127  and  _130
REMARK   54  A    between atoms: _130  and  _131
REMARK   55  A    between atoms: _134  and  _136
REMARK   56  A    between atoms: _136  and  _137
REMARK   57  A    between atoms: _136  and  _139
REMARK   58  A    between atoms: _139  and  _140
REMARK   59  A    between atoms: _143  and  _145
REMARK   60  A    between atoms: _145  and  _146
REMARK   61  A    between atoms: _145  and  _148
REMARK   62  A    between atoms: _148  and  _149
REMARK   63  A    between atoms: _152  and  _154
REMARK   64  A    between atoms: _154  and  _155
REMARK   65  A    between atoms: _154  and  _157
REMARK   66  A    between atoms: _157  and  _158
REMARK   67  A    between atoms: _158  and  _159
REMARK   68  A    between atoms: _161  and  _163
REMARK   69  A    between atoms: _163  and  _164
REMARK   70  A    between atoms: _163  and  _166
REMARK   71  A    between atoms: _166  and  _167
REMARK   72  A    between atoms: _170  and  _172
REMARK   73  A    between atoms: _172  and  _173
REMARK   74  A    between atoms: _172  and  _175
REMARK   75  A    between atoms: _175  and  _176
REMARK   76  A    between atoms: _181  and  _183
REMARK   77  A    between atoms: _183  and  _184
REMARK   78  A    between atoms: _183  and  _186
REMARK   79  A    between atoms: _189  and  _191
REMARK   80  A    between atoms: _191  and  _192
REMARK   81  A    between atoms: _191  and  _194
REMARK   82  A    between atoms: _194  and  _195
REMARK   83  A    between atoms: _200  and  _202
REMARK   84  A    between atoms: _202  and  _203
REMARK   85  A    between atoms: _202  and  _205
REMARK   86  A    between atoms: _205  and  _206
REMARK   87  A    between atoms: _206  and  _207
REMARK   88  A    between atoms: _212  and  _214
REMARK   89  A    between atoms: _214  and  _215
REMARK   90  A    between atoms: _217  and  _219
REMARK   91  A    between atoms: _219  and  _220
REMARK   92  A    between atoms: _219  and  _222
REMARK   93  A    between atoms: _222  and  _223
REMARK   94  A    between atoms: _228  and  _230
REMARK   95  A    between atoms: _230  and  _231
REMARK   96  A    between atoms: _230  and  _233
REMARK   97  A    between atoms: _233  and  _234
REMARK   98  A    between atoms: _237  and  _239
REMARK   99  A    between atoms: _239  and  _240
REMARK  100  A    between atoms: _239  and  _242
REMARK  101  A    between atoms: _242  and  _243
REMARK  102  A    between atoms: _243  and  _244
REMARK                            x       y       z     vdW  Elec       q    Type
REMARK                         _______ _______ _______ _____ _____    ______ ____
ROOT
ATOM      1  O   HOH     1      20.058   1.872 -19.095  0.00  0.00    +0.000 OA
ENDROOT
TORSDOF 0
REMARK  Name = ../refined-set-2016/3g19/3g19_pocket.pdb
REMARK  102 active torsions:
REMARK  status: ('A' for Active; 'I' for Inactive)
REMARK    1  A    between atoms: _1  and  _3
REMARK    2  A    between atoms: _3  and  _4
REMARK    3  A    between atoms: _3  and  _6
REMARK    4  A    between atoms: _6  and  _7
REMARK    5  A    between atoms: _10  and  _12
REMARK    6  A    between atoms: _12  and  _13
REMARK    7  A    between atoms: _12  and  _15
REMARK    8  A    between atoms: _15  and  _16
REMARK    9  A    between atoms: _19  and  _21
REMARK   10  A    between atoms: _21  and  _22
REMARK   11  A    between atoms: _21  and  _24
REMARK   12  A    between atoms: _24  and  _25
REMARK   13  A    between atoms: _30  and  _32
REMARK   14  A    between atoms: _32  and  _33
REMARK   15  A    between atoms: _32  and  _35
REMARK   16  A    between atoms: _35  and  _36
REMARK   17  A    between atoms: _39  and  _41
REMARK   18  A    between atoms: _41  and  _42
REMARK   19  A    between atoms: _41  and  _44
REMARK   20  A    between atoms: _44  and  _45
REMARK   21  A    between atoms: _48  and  _50
REMARK   22  A    between atoms: _50  and  _51
REMARK   23  A    between atoms: _50  and  _53
REMARK   24  A    between atoms: _53  and  _54
REMARK   25  A    between atoms: _59  and  _60
REMARK   26  A    between atoms: _62  and  _64
REMARK   27  A    between atoms: _64  and  _65
REMARK   28  A    between atoms: _64  and  _67
REMARK   29  A    between atoms: _67  and  _68
REMARK   30  A    between atoms: _72  and  _73
REMARK   31  A    between atoms: _78  and  _80
REMARK   32  A    between atoms: _80  and  _81
REMARK   33  A    between atoms: _80  and  _83
REMARK   34  A    between atoms: _83  and  _84
REMARK   35  A    between atoms: _84  and  _85
REMARK   36  A    between atoms: _87  and  _89
REMARK   37  A    between atoms: _89  and  _90
REMARK   38  A    between atoms: _89  and  _92
REMARK   39  A    between atoms: _92  and  _93
REMARK   40  A    between atoms: _93  and  _94
REMARK   41  A    between atoms: _97  and  _99
REMARK   42  A    between atoms: _99  and  _100
REMARK   43  A    between atoms: _99  and  _102
REMARK   44  A    between atoms: _102  and  _103
REMARK   45  A    between atoms: _109  and  _111
REMARK   46  A    between atoms: _111  and  _112
REMARK   47  A    between atoms: _111  and  _114
REMARK   48  A    between atoms: _117  and  _119
REMARK   49  A    between atoms: _119  and  _120
REMARK   50  A    between atoms: _119  and  _122
REMARK   51  A    between atoms: _125  and  _127
REMARK   52  A    between atoms: _127  and  _128
REMARK   53  A    between atoms: _127  and  _130
REMARK   54  A    between atoms: _130  and  _131
REMARK   55  A    between atoms: _134  and  _136
REMARK   56  A    between atoms: _136  and  _137
REMARK   57  A    between atoms: _136  and  _139
REMARK   58  A    between atoms: _139  and  _140
REMARK   59  A    between atoms: _143  and  _145
REMARK   60  A    between atoms: _145  and  _146
REMARK   61  A    between atoms: _145  and  _148
REMARK   62  A    between atoms: _148  and  _149
REMARK   63  A    between atoms: _152  and  _154
REMARK   64  A    between atoms: _154  and  _155
REMARK   65  A    between atoms: _154  and  _157
REMARK   66  A    between atoms: _157  and  _158
REMARK   67  A    between atoms: _158  and  _159
REMARK   68  A    between atoms: _161  and  _163
REMARK   69  A    between atoms: _163  and  _164
REMARK   70  A    between atoms: _163  and  _166
REMARK   71  A    between atoms: _166  and  _167
REMARK   72  A    between atoms: _170  and  _172
REMARK   73  A    between atoms: _172  and  _173
REMARK   74  A    between atoms: _172  and  _175
REMARK   75  A    between atoms: _175  and  _176
REMARK   76  A    between atoms: _181  and  _183
REMARK   77  A    between atoms: _183  and  _184
REMARK   78  A    between atoms: _183  and  _186
REMARK   79  A    between atoms: _189  and  _191
REMARK   80  A    between atoms: _191  and  _192
REMARK   81  A    between atoms: _191  and  _194
REMARK   82  A    between atoms: _194  and  _195
REMARK   83  A    between atoms: _200  and  _202
REMARK   84  A    between atoms: _202  and  _203
REMARK   85  A    between atoms: _202  and  _205
REMARK   86  A    between atoms: _205  and  _206
REMARK   87  A    between atoms: _206  and  _207
REMARK   88  A    between atoms: _212  and  _214
REMARK   89  A    between atoms: _214  and  _215
REMARK   90  A    between atoms: _217  and  _219
REMARK   91  A    between atoms: _219  and  _220
REMARK   92  A    between atoms: _219  and  _222
REMARK   93  A    between atoms: _222  and  _223
REMARK   94  A    between atoms: _228  and  _230
REMARK   95  A    between atoms: _230  and  _231
REMARK   96  A    between atoms: _230  and  _233
REMARK   97  A    between atoms: _233  and  _234
REMARK   98  A    between atoms: _237  and  _239
REMARK   99  A    between atoms: _239  and  _240
REMARK  100  A    between atoms: _239  and  _242
REMARK  101  A    between atoms: _242  and  _243
REMARK  102  A    between atoms: _243  and  _244
REMARK                            x       y       z     vdW  Elec       q    Type
REMARK                         _______ _______ _______ _____ _____    ______ ____
ROOT
ATOM      1  O   HOH     1      22.666  -4.858 -21.048  0.00  0.00    +0.000 OA
ENDROOT
TORSDOF 0
REMARK  Name = ../refined-set-2016/3g19/3g19_pocket.pdb
REMARK  102 active torsions:
REMARK  status: ('A' for Active; 'I' for Inactive)
REMARK    1  A    between atoms: _1  and  _3
REMARK    2  A    between atoms: _3  and  _4
REMARK    3  A    between atoms: _3  and  _6
REMARK    4  A    between atoms: _6  and  _7
REMARK    5  A    between atoms: _10  and  _12
REMARK    6  A    between atoms: _12  and  _13
REMARK    7  A    between atoms: _12  and  _15
REMARK    8  A    between atoms: _15  and  _16
REMARK    9  A    between atoms: _19  and  _21
REMARK   10  A    between atoms: _21  and  _22
REMARK   11  A    between atoms: _21  and  _24
REMARK   12  A    between atoms: _24  and  _25
REMARK   13  A    between atoms: _30  and  _32
REMARK   14  A    between atoms: _32  and  _33
REMARK   15  A    between atoms: _32  and  _35
REMARK   16  A    between atoms: _35  and  _36
REMARK   17  A    between atoms: _39  and  _41
REMARK   18  A    between atoms: _41  and  _42
REMARK   19  A    between atoms: _41  and  _44
REMARK   20  A    between atoms: _44  and  _45
REMARK   21  A    between atoms: _48  and  _50
REMARK   22  A    between atoms: _50  and  _51
REMARK   23  A    between atoms: _50  and  _53
REMARK   24  A    between atoms: _53  and  _54
REMARK   25  A    between atoms: _59  and  _60
REMARK   26  A    between atoms: _62  and  _64
REMARK   27  A    between atoms: _64  and  _65
REMARK   28  A    between atoms: _64  and  _67
REMARK   29  A    between atoms: _67  and  _68
REMARK   30  A    between atoms: _72  and  _73
REMARK   31  A    between atoms: _78  and  _80
REMARK   32  A    between atoms: _80  and  _81
REMARK   33  A    between atoms: _80  and  _83
REMARK   34  A    between atoms: _83  and  _84
REMARK   35  A    between atoms: _84  and  _85
REMARK   36  A    between atoms: _87  and  _89
REMARK   37  A    between atoms: _89  and  _90
REMARK   38  A    between atoms: _89  and  _92
REMARK   39  A    between atoms: _92  and  _93
REMARK   40  A    between atoms: _93  and  _94
REMARK   41  A    between atoms: _97  and  _99
REMARK   42  A    between atoms: _99  and  _100
REMARK   43  A    between atoms: _99  and  _102
REMARK   44  A    between atoms: _102  and  _103
REMARK   45  A    between atoms: _109  and  _111
REMARK   46  A    between atoms: _111  and  _112
REMARK   47  A    between atoms: _111  and  _114
REMARK   48  A    between atoms: _117  and  _119
REMARK   49  A    between atoms: _119  and  _120
REMARK   50  A    between atoms: _119  and  _122
REMARK   51  A    between atoms: _125  and  _127
REMARK   52  A    between atoms: _127  and  _128
REMARK   53  A    between atoms: _127  and  _130
REMARK   54  A    between atoms: _130  and  _131
REMARK   55  A    between atoms: _134  and  _136
REMARK   56  A    between atoms: _136  and  _137
REMARK   57  A    between atoms: _136  and  _139
REMARK   58  A    between atoms: _139  and  _140
REMARK   59  A    between atoms: _143  and  _145
REMARK   60  A    between atoms: _145  and  _146
REMARK   61  A    between atoms: _145  and  _148
REMARK   62  A    between atoms: _148  and  _149
REMARK   63  A    between atoms: _152  and  _154
REMARK   64  A    between atoms: _154  and  _155
REMARK   65  A    between atoms: _154  and  _157
REMARK   66  A    between atoms: _157  and  _158
REMARK   67  A    between atoms: _158  and  _159
REMARK   68  A    between atoms: _161  and  _163
REMARK   69  A    between atoms: _163  and  _164
REMARK   70  A    between atoms: _163  and  _166
REMARK   71  A    between atoms: _166  and  _167
REMARK   72  A    between atoms: _170  and  _172
REMARK   73  A    between atoms: _172  and  _173
REMARK   74  A    between atoms: _172  and  _175
REMARK   75  A    between atoms: _175  and  _176
REMARK   76  A    between atoms: _181  and  _183
REMARK   77  A    between atoms: _183  and  _184
REMARK   78  A    between atoms: _183  and  _186
REMARK   79  A    between atoms: _189  and  _191
REMARK   80  A    between atoms: _191  and  _192
REMARK   81  A    between atoms: _191  and  _194
REMARK   82  A    between atoms: _194  and  _195
REMARK   83  A    between atoms: _200  and  _202
REMARK   84  A    between atoms: _202  and  _203
REMARK   85  A    between atoms: _202  and  _205
REMARK   86  A    between atoms: _205  and  _206
REMARK   87  A    between atoms: _206  and  _207
REMARK   88  A    between atoms: _212  and  _214
REMARK   89  A    between atoms: _214  and  _215
REMARK   90  A    between atoms: _217  and  _219
REMARK   91  A    between atoms: _219  and  _220
REMARK   92  A    between atoms: _219  and  _222
REMARK   93  A    between atoms: _222  and  _223
REMARK   94  A    between atoms: _228  and  _230
REMARK   95  A    between atoms: _230  and  _231
REMARK   96  A    between atoms: _230  and  _233
REMARK   97  A    between atoms: _233  and  _234
REMARK   98  A    between atoms: _237  and  _239
REMARK   99  A    between atoms: _239  and  _240
REMARK  100  A    between atoms: _239  and  _242
REMARK  101  A    between atoms: _242  and  _243
REMARK  102  A    between atoms: _243  and  _244
REMARK                            x       y       z     vdW  Elec       q    Type
REMARK                         _______ _______ _______ _____ _____    ______ ____
ROOT
ATOM      1  O   HOH     1      18.771 -14.476 -13.825  0.00  0.00    +0.000 OA
ENDROOT
TORSDOF 0
REMARK  Name = ../refined-set-2016/3g19/3g19_pocket.pdb
REMARK  102 active torsions:
REMARK  status: ('A' for Active; 'I' for Inactive)
REMARK    1  A    between atoms: _1  and  _3
REMARK    2  A    between atoms: _3  and  _4
REMARK    3  A    between atoms: _3  and  _6
REMARK    4  A    between atoms: _6  and  _7
REMARK    5  A    between atoms: _10  and  _12
REMARK    6  A    between atoms: _12  and  _13
REMARK    7  A    between atoms: _12  and  _15
REMARK    8  A    between atoms: _15  and  _16
REMARK    9  A    between atoms: _19  and  _21
REMARK   10  A    between atoms: _21  and  _22
REMARK   11  A    between atoms: _21  and  _24
REMARK   12  A    between atoms: _24  and  _25
REMARK   13  A    between atoms: _30  and  _32
REMARK   14  A    between atoms: _32  and  _33
REMARK   15  A    between atoms: _32  and  _35
REMARK   16  A    between atoms: _35  and  _36
REMARK   17  A    between atoms: _39  and  _41
REMARK   18  A    between atoms: _41  and  _42
REMARK   19  A    between atoms: _41  and  _44
REMARK   20  A    between atoms: _44  and  _45
REMARK   21  A    between atoms: _48  and  _50
REMARK   22  A    between atoms: _50  and  _51
REMARK   23  A    between atoms: _50  and  _53
REMARK   24  A    between atoms: _53  and  _54
REMARK   25  A    between atoms: _59  and  _60
REMARK   26  A    between atoms: _62  and  _64
REMARK   27  A    between atoms: _64  and  _65
REMARK   28  A    between atoms: _64  and  _67
REMARK   29  A    between atoms: _67  and  _68
REMARK   30  A    between atoms: _72  and  _73
REMARK   31  A    between atoms: _78  and  _80
REMARK   32  A    between atoms: _80  and  _81
REMARK   33  A    between atoms: _80  and  _83
REMARK   34  A    between atoms: _83  and  _84
REMARK   35  A    between atoms: _84  and  _85
REMARK   36  A    between atoms: _87  and  _89
REMARK   37  A    between atoms: _89  and  _90
REMARK   38  A    between atoms: _89  and  _92
REMARK   39  A    between atoms: _92  and  _93
REMARK   40  A    between atoms: _93  and  _94
REMARK   41  A    between atoms: _97  and  _99
REMARK   42  A    between atoms: _99  and  _100
REMARK   43  A    between atoms: _99  and  _102
REMARK   44  A    between atoms: _102  and  _103
REMARK   45  A    between atoms: _109  and  _111
REMARK   46  A    between atoms: _111  and  _112
REMARK   47  A    between atoms: _111  and  _114
REMARK   48  A    between atoms: _117  and  _119
REMARK   49  A    between atoms: _119  and  _120
REMARK   50  A    between atoms: _119  and  _122
REMARK   51  A    between atoms: _125  and  _127
REMARK   52  A    between atoms: _127  and  _128
REMARK   53  A    between atoms: _127  and  _130
REMARK   54  A    between atoms: _130  and  _131
REMARK   55  A    between atoms: _134  and  _136
REMARK   56  A    between atoms: _136  and  _137
REMARK   57  A    between atoms: _136  and  _139
REMARK   58  A    between atoms: _139  and  _140
REMARK   59  A    between atoms: _143  and  _145
REMARK   60  A    between atoms: _145  and  _146
REMARK   61  A    between atoms: _145  and  _148
REMARK   62  A    between atoms: _148  and  _149
REMARK   63  A    between atoms: _152  and  _154
REMARK   64  A    between atoms: _154  and  _155
REMARK   65  A    between atoms: _154  and  _157
REMARK   66  A    between atoms: _157  and  _158
REMARK   67  A    between atoms: _158  and  _159
REMARK   68  A    between atoms: _161  and  _163
REMARK   69  A    between atoms: _163  and  _164
REMARK   70  A    between atoms: _163  and  _166
REMARK   71  A    between atoms: _166  and  _167
REMARK   72  A    between atoms: _170  and  _172
REMARK   73  A    between atoms: _172  and  _173
REMARK   74  A    between atoms: _172  and  _175
REMARK   75  A    between atoms: _175  and  _176
REMARK   76  A    between atoms: _181  and  _183
REMARK   77  A    between atoms: _183  and  _184
REMARK   78  A    between atoms: _183  and  _186
REMARK   79  A    between atoms: _189  and  _191
REMARK   80  A    between atoms: _191  and  _192
REMARK   81  A    between atoms: _191  and  _194
REMARK   82  A    between atoms: _194  and  _195
REMARK   83  A    between atoms: _200  and  _202
REMARK   84  A    between atoms: _202  and  _203
REMARK   85  A    between atoms: _202  and  _205
REMARK   86  A    between atoms: _205  and  _206
REMARK   87  A    between atoms: _206  and  _207
REMARK   88  A    between atoms: _212  and  _214
REMARK   89  A    between atoms: _214  and  _215
REMARK   90  A    between atoms: _217  and  _219
REMARK   91  A    between atoms: _219  and  _220
REMARK   92  A    between atoms: _219  and  _222
REMARK   93  A    between atoms: _222  and  _223
REMARK   94  A    between atoms: _228  and  _230
REMARK   95  A    between atoms: _230  and  _231
REMARK   96  A    between atoms: _230  and  _233
REMARK   97  A    between atoms: _233  and  _234
REMARK   98  A    between atoms: _237  and  _239
REMARK   99  A    between atoms: _239  and  _240
REMARK  100  A    between atoms: _239  and  _242
REMARK  101  A    between atoms: _242  and  _243
REMARK  102  A    between atoms: _243  and  _244
REMARK                            x       y       z     vdW  Elec       q    Type
REMARK                         _______ _______ _______ _____ _____    ______ ____
ROOT
ATOM      1  O   HOH     1      20.887 -11.068  -6.288  0.00  0.00    +0.000 OA
ENDROOT
TORSDOF 0
REMARK  Name = ../refined-set-2016/3g19/3g19_pocket.pdb
REMARK  102 active torsions:
REMARK  status: ('A' for Active; 'I' for Inactive)
REMARK    1  A    between atoms: _1  and  _3
REMARK    2  A    between atoms: _3  and  _4
REMARK    3  A    between atoms: _3  and  _6
REMARK    4  A    between atoms: _6  and  _7
REMARK    5  A    between atoms: _10  and  _12
REMARK    6  A    between atoms: _12  and  _13
REMARK    7  A    between atoms: _12  and  _15
REMARK    8  A    between atoms: _15  and  _16
REMARK    9  A    between atoms: _19  and  _21
REMARK   10  A    between atoms: _21  and  _22
REMARK   11  A    between atoms: _21  and  _24
REMARK   12  A    between atoms: _24  and  _25
REMARK   13  A    between atoms: _30  and  _32
REMARK   14  A    between atoms: _32  and  _33
REMARK   15  A    between atoms: _32  and  _35
REMARK   16  A    between atoms: _35  and  _36
REMARK   17  A    between atoms: _39  and  _41
REMARK   18  A    between atoms: _41  and  _42
REMARK   19  A    between atoms: _41  and  _44
REMARK   20  A    between atoms: _44  and  _45
REMARK   21  A    between atoms: _48  and  _50
REMARK   22  A    between atoms: _50  and  _51
REMARK   23  A    between atoms: _50  and  _53
REMARK   24  A    between atoms: _53  and  _54
REMARK   25  A    between atoms: _59  and  _60
REMARK   26  A    between atoms: _62  and  _64
REMARK   27  A    between atoms: _64  and  _65
REMARK   28  A    between atoms: _64  and  _67
REMARK   29  A    between atoms: _67  and  _68
REMARK   30  A    between atoms: _72  and  _73
REMARK   31  A    between atoms: _78  and  _80
REMARK   32  A    between atoms: _80  and  _81
REMARK   33  A    between atoms: _80  and  _83
REMARK   34  A    between atoms: _83  and  _84
REMARK   35  A    between atoms: _84  and  _85
REMARK   36  A    between atoms: _87  and  _89
REMARK   37  A    between atoms: _89  and  _90
REMARK   38  A    between atoms: _89  and  _92
REMARK   39  A    between atoms: _92  and  _93
REMARK   40  A    between atoms: _93  and  _94
REMARK   41  A    between atoms: _97  and  _99
REMARK   42  A    between atoms: _99  and  _100
REMARK   43  A    between atoms: _99  and  _102
REMARK   44  A    between atoms: _102  and  _103
REMARK   45  A    between atoms: _109  and  _111
REMARK   46  A    between atoms: _111  and  _112
REMARK   47  A    between atoms: _111  and  _114
REMARK   48  A    between atoms: _117  and  _119
REMARK   49  A    between atoms: _119  and  _120
REMARK   50  A    between atoms: _119  and  _122
REMARK   51  A    between atoms: _125  and  _127
REMARK   52  A    between atoms: _127  and  _128
REMARK   53  A    between atoms: _127  and  _130
REMARK   54  A    between atoms: _130  and  _131
REMARK   55  A    between atoms: _134  and  _136
REMARK   56  A    between atoms: _136  and  _137
REMARK   57  A    between atoms: _136  and  _139
REMARK   58  A    between atoms: _139  and  _140
REMARK   59  A    between atoms: _143  and  _145
REMARK   60  A    between atoms: _145  and  _146
REMARK   61  A    between atoms: _145  and  _148
REMARK   62  A    between atoms: _148  and  _149
REMARK   63  A    between atoms: _152  and  _154
REMARK   64  A    between atoms: _154  and  _155
REMARK   65  A    between atoms: _154  and  _157
REMARK   66  A    between atoms: _157  and  _158
REMARK   67  A    between atoms: _158  and  _159
REMARK   68  A    between atoms: _161  and  _163
REMARK   69  A    between atoms: _163  and  _164
REMARK   70  A    between atoms: _163  and  _166
REMARK   71  A    between atoms: _166  and  _167
REMARK   72  A    between atoms: _170  and  _172
REMARK   73  A    between atoms: _172  and  _173
REMARK   74  A    between atoms: _172  and  _175
REMARK   75  A    between atoms: _175  and  _176
REMARK   76  A    between atoms: _181  and  _183
REMARK   77  A    between atoms: _183  and  _184
REMARK   78  A    between atoms: _183  and  _186
REMARK   79  A    between atoms: _189  and  _191
REMARK   80  A    between atoms: _191  and  _192
REMARK   81  A    between atoms: _191  and  _194
REMARK   82  A    between atoms: _194  and  _195
REMARK   83  A    between atoms: _200  and  _202
REMARK   84  A    between atoms: _202  and  _203
REMARK   85  A    between atoms: _202  and  _205
REMARK   86  A    between atoms: _205  and  _206
REMARK   87  A    between atoms: _206  and  _207
REMARK   88  A    between atoms: _212  and  _214
REMARK   89  A    between atoms: _214  and  _215
REMARK   90  A    between atoms: _217  and  _219
REMARK   91  A    between atoms: _219  and  _220
REMARK   92  A    between atoms: _219  and  _222
REMARK   93  A    between atoms: _222  and  _223
REMARK   94  A    between atoms: _228  and  _230
REMARK   95  A    between atoms: _230  and  _231
REMARK   96  A    between atoms: _230  and  _233
REMARK   97  A    between atoms: _233  and  _234
REMARK   98  A    between atoms: _237  and  _239
REMARK   99  A    between atoms: _239  and  _240
REMARK  100  A    between atoms: _239  and  _242
REMARK  101  A    between atoms: _242  and  _243
REMARK  102  A    between atoms: _243  and  _244
REMARK                            x       y       z     vdW  Elec       q    Type
REMARK                         _______ _______ _______ _____ _____    ______ ____
ROOT
ATOM      1  O   HOH     1      25.672  -8.532 -17.478  0.00  0.00    +0.000 OA
ENDROOT
TORSDOF 0
REMARK  Name = ../refined-set-2016/3g19/3g19_pocket.pdb
REMARK  102 active torsions:
REMARK  status: ('A' for Active; 'I' for Inactive)
REMARK    1  A    between atoms: _1  and  _3
REMARK    2  A    between atoms: _3  and  _4
REMARK    3  A    between atoms: _3  and  _6
REMARK    4  A    between atoms: _6  and  _7
REMARK    5  A    between atoms: _10  and  _12
REMARK    6  A    between atoms: _12  and  _13
REMARK    7  A    between atoms: _12  and  _15
REMARK    8  A    between atoms: _15  and  _16
REMARK    9  A    between atoms: _19  and  _21
REMARK   10  A    between atoms: _21  and  _22
REMARK   11  A    between atoms: _21  and  _24
REMARK   12  A    between atoms: _24  and  _25
REMARK   13  A    between atoms: _30  and  _32
REMARK   14  A    between atoms: _32  and  _33
REMARK   15  A    between atoms: _32  and  _35
REMARK   16  A    between atoms: _35  and  _36
REMARK   17  A    between atoms: _39  and  _41
REMARK   18  A    between atoms: _41  and  _42
REMARK   19  A    between atoms: _41  and  _44
REMARK   20  A    between atoms: _44  and  _45
REMARK   21  A    between atoms: _48  and  _50
REMARK   22  A    between atoms: _50  and  _51
REMARK   23  A    between atoms: _50  and  _53
REMARK   24  A    between atoms: _53  and  _54
REMARK   25  A    between atoms: _59  and  _60
REMARK   26  A    between atoms: _62  and  _64
REMARK   27  A    between atoms: _64  and  _65
REMARK   28  A    between atoms: _64  and  _67
REMARK   29  A    between atoms: _67  and  _68
REMARK   30  A    between atoms: _72  and  _73
REMARK   31  A    between atoms: _78  and  _80
REMARK   32  A    between atoms: _80  and  _81
REMARK   33  A    between atoms: _80  and  _83
REMARK   34  A    between atoms: _83  and  _84
REMARK   35  A    between atoms: _84  and  _85
REMARK   36  A    between atoms: _87  and  _89
REMARK   37  A    between atoms: _89  and  _90
REMARK   38  A    between atoms: _89  and  _92
REMARK   39  A    between atoms: _92  and  _93
REMARK   40  A    between atoms: _93  and  _94
REMARK   41  A    between atoms: _97  and  _99
REMARK   42  A    between atoms: _99  and  _100
REMARK   43  A    between atoms: _99  and  _102
REMARK   44  A    between atoms: _102  and  _103
REMARK   45  A    between atoms: _109  and  _111
REMARK   46  A    between atoms: _111  and  _112
REMARK   47  A    between atoms: _111  and  _114
REMARK   48  A    between atoms: _117  and  _119
REMARK   49  A    between atoms: _119  and  _120
REMARK   50  A    between atoms: _119  and  _122
REMARK   51  A    between atoms: _125  and  _127
REMARK   52  A    between atoms: _127  and  _128
REMARK   53  A    between atoms: _127  and  _130
REMARK   54  A    between atoms: _130  and  _131
REMARK   55  A    between atoms: _134  and  _136
REMARK   56  A    between atoms: _136  and  _137
REMARK   57  A    between atoms: _136  and  _139
REMARK   58  A    between atoms: _139  and  _140
REMARK   59  A    between atoms: _143  and  _145
REMARK   60  A    between atoms: _145  and  _146
REMARK   61  A    between atoms: _145  and  _148
REMARK   62  A    between atoms: _148  and  _149
REMARK   63  A    between atoms: _152  and  _154
REMARK   64  A    between atoms: _154  and  _155
REMARK   65  A    between atoms: _154  and  _157
REMARK   66  A    between atoms: _157  and  _158
REMARK   67  A    between atoms: _158  and  _159
REMARK   68  A    between atoms: _161  and  _163
REMARK   69  A    between atoms: _163  and  _164
REMARK   70  A    between atoms: _163  and  _166
REMARK   71  A    between atoms: _166  and  _167
REMARK   72  A    between atoms: _170  and  _172
REMARK   73  A    between atoms: _172  and  _173
REMARK   74  A    between atoms: _172  and  _175
REMARK   75  A    between atoms: _175  and  _176
REMARK   76  A    between atoms: _181  and  _183
REMARK   77  A    between atoms: _183  and  _184
REMARK   78  A    between atoms: _183  and  _186
REMARK   79  A    between atoms: _189  and  _191
REMARK   80  A    between atoms: _191  and  _192
REMARK   81  A    between atoms: _191  and  _194
REMARK   82  A    between atoms: _194  and  _195
REMARK   83  A    between atoms: _200  and  _202
REMARK   84  A    between atoms: _202  and  _203
REMARK   85  A    between atoms: _202  and  _205
REMARK   86  A    between atoms: _205  and  _206
REMARK   87  A    between atoms: _206  and  _207
REMARK   88  A    between atoms: _212  and  _214
REMARK   89  A    between atoms: _214  and  _215
REMARK   90  A    between atoms: _217  and  _219
REMARK   91  A    between atoms: _219  and  _220
REMARK   92  A    between atoms: _219  and  _222
REMARK   93  A    between atoms: _222  and  _223
REMARK   94  A    between atoms: _228  and  _230
REMARK   95  A    between atoms: _230  and  _231
REMARK   96  A    between atoms: _230  and  _233
REMARK   97  A    between atoms: _233  and  _234
REMARK   98  A    between atoms: _237  and  _239
REMARK   99  A    between atoms: _239  and  _240
REMARK  100  A    between atoms: _239  and  _242
REMARK  101  A    between atoms: _242  and  _243
REMARK  102  A    between atoms: _243  and  _244
REMARK                            x       y       z     vdW  Elec       q    Type
REMARK                         _______ _______ _______ _____ _____    ______ ____
ROOT
ATOM      1  O   HOH     1      27.086 -11.503 -15.011  0.00  0.00    +0.000 OA
ENDROOT
TORSDOF 0
REMARK  Name = ../refined-set-2016/3g19/3g19_pocket.pdb
REMARK  102 active torsions:
REMARK  status: ('A' for Active; 'I' for Inactive)
REMARK    1  A    between atoms: _1  and  _3
REMARK    2  A    between atoms: _3  and  _4
REMARK    3  A    between atoms: _3  and  _6
REMARK    4  A    between atoms: _6  and  _7
REMARK    5  A    between atoms: _10  and  _12
REMARK    6  A    between atoms: _12  and  _13
REMARK    7  A    between atoms: _12  and  _15
REMARK    8  A    between atoms: _15  and  _16
REMARK    9  A    between atoms: _19  and  _21
REMARK   10  A    between atoms: _21  and  _22
REMARK   11  A    between atoms: _21  and  _24
REMARK   12  A    between atoms: _24  and  _25
REMARK   13  A    between atoms: _30  and  _32
REMARK   14  A    between atoms: _32  and  _33
REMARK   15  A    between atoms: _32  and  _35
REMARK   16  A    between atoms: _35  and  _36
REMARK   17  A    between atoms: _39  and  _41
REMARK   18  A    between atoms: _41  and  _42
REMARK   19  A    between atoms: _41  and  _44
REMARK   20  A    between atoms: _44  and  _45
REMARK   21  A    between atoms: _48  and  _50
REMARK   22  A    between atoms: _50  and  _51
REMARK   23  A    between atoms: _50  and  _53
REMARK   24  A    between atoms: _53  and  _54
REMARK   25  A    between atoms: _59  and  _60
REMARK   26  A    between atoms: _62  and  _64
REMARK   27  A    between atoms: _64  and  _65
REMARK   28  A    between atoms: _64  and  _67
REMARK   29  A    between atoms: _67  and  _68
REMARK   30  A    between atoms: _72  and  _73
REMARK   31  A    between atoms: _78  and  _80
REMARK   32  A    between atoms: _80  and  _81
REMARK   33  A    between atoms: _80  and  _83
REMARK   34  A    between atoms: _83  and  _84
REMARK   35  A    between atoms: _84  and  _85
REMARK   36  A    between atoms: _87  and  _89
REMARK   37  A    between atoms: _89  and  _90
REMARK   38  A    between atoms: _89  and  _92
REMARK   39  A    between atoms: _92  and  _93
REMARK   40  A    between atoms: _93  and  _94
REMARK   41  A    between atoms: _97  and  _99
REMARK   42  A    between atoms: _99  and  _100
REMARK   43  A    between atoms: _99  and  _102
REMARK   44  A    between atoms: _102  and  _103
REMARK   45  A    between atoms: _109  and  _111
REMARK   46  A    between atoms: _111  and  _112
REMARK   47  A    between atoms: _111  and  _114
REMARK   48  A    between atoms: _117  and  _119
REMARK   49  A    between atoms: _119  and  _120
REMARK   50  A    between atoms: _119  and  _122
REMARK   51  A    between atoms: _125  and  _127
REMARK   52  A    between atoms: _127  and  _128
REMARK   53  A    between atoms: _127  and  _130
REMARK   54  A    between atoms: _130  and  _131
REMARK   55  A    between atoms: _134  and  _136
REMARK   56  A    between atoms: _136  and  _137
REMARK   57  A    between atoms: _136  and  _139
REMARK   58  A    between atoms: _139  and  _140
REMARK   59  A    between atoms: _143  and  _145
REMARK   60  A    between atoms: _145  and  _146
REMARK   61  A    between atoms: _145  and  _148
REMARK   62  A    between atoms: _148  and  _149
REMARK   63  A    between atoms: _152  and  _154
REMARK   64  A    between atoms: _154  and  _155
REMARK   65  A    between atoms: _154  and  _157
REMARK   66  A    between atoms: _157  and  _158
REMARK   67  A    between atoms: _158  and  _159
REMARK   68  A    between atoms: _161  and  _163
REMARK   69  A    between atoms: _163  and  _164
REMARK   70  A    between atoms: _163  and  _166
REMARK   71  A    between atoms: _166  and  _167
REMARK   72  A    between atoms: _170  and  _172
REMARK   73  A    between atoms: _172  and  _173
REMARK   74  A    between atoms: _172  and  _175
REMARK   75  A    between atoms: _175  and  _176
REMARK   76  A    between atoms: _181  and  _183
REMARK   77  A    between atoms: _183  and  _184
REMARK   78  A    between atoms: _183  and  _186
REMARK   79  A    between atoms: _189  and  _191
REMARK   80  A    between atoms: _191  and  _192
REMARK   81  A    between atoms: _191  and  _194
REMARK   82  A    between atoms: _194  and  _195
REMARK   83  A    between atoms: _200  and  _202
REMARK   84  A    between atoms: _202  and  _203
REMARK   85  A    between atoms: _202  and  _205
REMARK   86  A    between atoms: _205  and  _206
REMARK   87  A    between atoms: _206  and  _207
REMARK   88  A    between atoms: _212  and  _214
REMARK   89  A    between atoms: _214  and  _215
REMARK   90  A    between atoms: _217  and  _219
REMARK   91  A    between atoms: _219  and  _220
REMARK   92  A    between atoms: _219  and  _222
REMARK   93  A    between atoms: _222  and  _223
REMARK   94  A    between atoms: _228  and  _230
REMARK   95  A    between atoms: _230  and  _231
REMARK   96  A    between atoms: _230  and  _233
REMARK   97  A    between atoms: _233  and  _234
REMARK   98  A    between atoms: _237  and  _239
REMARK   99  A    between atoms: _239  and  _240
REMARK  100  A    between atoms: _239  and  _242
REMARK  101  A    between atoms: _242  and  _243
REMARK  102  A    between atoms: _243  and  _244
REMARK                            x       y       z     vdW  Elec       q    Type
REMARK                         _______ _______ _______ _____ _____    ______ ____
ROOT
ATOM      1  O   HOH     1      25.642 -11.149 -17.484  0.00  0.00    +0.000 OA
ENDROOT
TORSDOF 0
