REMARK  Name = ../refined-set-2016/3prs/3prs_pocket.pdb
REMARK  238 active torsions:
REMARK  status: ('A' for Active; 'I' for Inactive)
REMARK    1  A    between atoms: _1  and  _3
REMARK    2  A    between atoms: _3  and  _4
REMARK    3  A    between atoms: _3  and  _6
REMARK    4  A    between atoms: _6  and  _7
REMARK    5  A    between atoms: _10  and  _12
REMARK    6  A    between atoms: _12  and  _13
REMARK    7  A    between atoms: _12  and  _15
REMARK    8  A    between atoms: _15  and  _16
REMARK    9  A    between atoms: _19  and  _21
REMARK   10  A    between atoms: _21  and  _22
REMARK   11  A    between atoms: _21  and  _24
REMARK   12  A    between atoms: _24  and  _25
REMARK   13  A    between atoms: _28  and  _30
REMARK   14  A    between atoms: _30  and  _31
REMARK   15  A    between atoms: _30  and  _33
REMARK   16  A    between atoms: _33  and  _34
REMARK   17  A    between atoms: _37  and  _39
REMARK   18  A    between atoms: _39  and  _40
REMARK   19  A    between atoms: _39  and  _42
REMARK   20  A    between atoms: _42  and  _43
REMARK   21  A    between atoms: _46  and  _48
REMARK   22  A    between atoms: _48  and  _49
REMARK   23  A    between atoms: _52  and  _54
REMARK   24  A    between atoms: _54  and  _55
REMARK   25  A    between atoms: _54  and  _57
REMARK   26  A    between atoms: _57  and  _58
REMARK   27  A    between atoms: _63  and  _64
REMARK   28  A    between atoms: _66  and  _68
REMARK   29  A    between atoms: _68  and  _69
REMARK   30  A    between atoms: _68  and  _71
REMARK   31  A    between atoms: _71  and  _72
REMARK   32  A    between atoms: _75  and  _77
REMARK   33  A    between atoms: _77  and  _78
REMARK   34  A    between atoms: _77  and  _80
REMARK   35  A    between atoms: _80  and  _81
REMARK   36  A    between atoms: _87  and  _89
REMARK   37  A    between atoms: _89  and  _90
REMARK   38  A    between atoms: _89  and  _92
REMARK   39  A    between atoms: _92  and  _93
REMARK   40  A    between atoms: _96  and  _98
REMARK   41  A    between atoms: _98  and  _99
REMARK   42  A    between atoms: _98  and  _101
REMARK   43  A    between atoms: _101  and  _102
REMARK   44  A    between atoms: _105  and  _107
REMARK   45  A    between atoms: _107  and  _108
REMARK   46  A    between atoms: _110  and  _112
REMARK   47  A    between atoms: _112  and  _113
REMARK   48  A    between atoms: _112  and  _115
REMARK   49  A    between atoms: _115  and  _116
REMARK   50  A    between atoms: _118  and  _120
REMARK   51  A    between atoms: _120  and  _121
REMARK   52  A    between atoms: _120  and  _123
REMARK   53  A    between atoms: _123  and  _124
REMARK   54  A    between atoms: _126  and  _128
REMARK   55  A    between atoms: _128  and  _129
REMARK   56  A    between atoms: _128  and  _131
REMARK   57  A    between atoms: _131  and  _132
REMARK   58  A    between atoms: _135  and  _137
REMARK   59  A    between atoms: _137  and  _138
REMARK   60  A    between atoms: _137  and  _140
REMARK   61  A    between atoms: _140  and  _141
REMARK   62  A    between atoms: _151  and  _153
REMARK   63  A    between atoms: _153  and  _154
REMARK   64  A    between atoms: _153  and  _156
REMARK   65  A    between atoms: _156  and  _157
REMARK   66  A    between atoms: _159  and  _161
REMARK   67  A    between atoms: _161  and  _162
REMARK   68  A    between atoms: _161  and  _164
REMARK   69  A    between atoms: _164  and  _165
REMARK   70  A    between atoms: _168  and  _170
REMARK   71  A    between atoms: _170  and  _171
REMARK   72  A    between atoms: _170  and  _173
REMARK   73  A    between atoms: _173  and  _174
REMARK   74  A    between atoms: _176  and  _178
REMARK   75  A    between atoms: _178  and  _179
REMARK   76  A    between atoms: _178  and  _181
REMARK   77  A    between atoms: _181  and  _182
REMARK   78  A    between atoms: _187  and  _188
REMARK   79  A    between atoms: _190  and  _192
REMARK   80  A    between atoms: _192  and  _193
REMARK   81  A    between atoms: _195  and  _197
REMARK   82  A    between atoms: _197  and  _198
REMARK   83  A    between atoms: _197  and  _200
REMARK   84  A    between atoms: _200  and  _201
REMARK   85  A    between atoms: _204  and  _206
REMARK   86  A    between atoms: _206  and  _207
REMARK   87  A    between atoms: _209  and  _211
REMARK   88  A    between atoms: _211  and  _212
REMARK   89  A    between atoms: _211  and  _214
REMARK   90  A    between atoms: _214  and  _215
REMARK   91  A    between atoms: _217  and  _219
REMARK   92  A    between atoms: _219  and  _220
REMARK   93  A    between atoms: _219  and  _222
REMARK   94  A    between atoms: _222  and  _223
REMARK   95  A    between atoms: _225  and  _227
REMARK   96  A    between atoms: _227  and  _228
REMARK   97  A    between atoms: _227  and  _230
REMARK   98  A    between atoms: _230  and  _231
REMARK   99  A    between atoms: _233  and  _235
REMARK  100  A    between atoms: _235  and  _236
REMARK  101  A    between atoms: _235  and  _238
REMARK  102  A    between atoms: _238  and  _239
REMARK  103  A    between atoms: _245  and  _247
REMARK  104  A    between atoms: _247  and  _248
REMARK  105  A    between atoms: _247  and  _250
REMARK  106  A    between atoms: _250  and  _251
REMARK  107  A    between atoms: _251  and  _252
REMARK  108  A    between atoms: _255  and  _257
REMARK  109  A    between atoms: _257  and  _258
REMARK  110  A    between atoms: _257  and  _260
REMARK  111  A    between atoms: _260  and  _261
REMARK  112  A    between atoms: _264  and  _266
REMARK  113  A    between atoms: _266  and  _267
REMARK  114  A    between atoms: _266  and  _269
REMARK  115  A    between atoms: _269  and  _270
REMARK  116  A    between atoms: _272  and  _274
REMARK  117  A    between atoms: _274  and  _275
REMARK  118  A    between atoms: _274  and  _277
REMARK  119  A    between atoms: _277  and  _278
REMARK  120  A    between atoms: _281  and  _283
REMARK  121  A    between atoms: _283  and  _284
REMARK  122  A    between atoms: _283  and  _286
REMARK  123  A    between atoms: _286  and  _287
REMARK  124  A    between atoms: _290  and  _292
REMARK  125  A    between atoms: _292  and  _293
REMARK  126  A    between atoms: _295  and  _297
REMARK  127  A    between atoms: _297  and  _298
REMARK  128  A    between atoms: _297  and  _300
REMARK  129  A    between atoms: _300  and  _301
REMARK  130  A    between atoms: _304  and  _306
REMARK  131  A    between atoms: _306  and  _307
REMARK  132  A    between atoms: _306  and  _309
REMARK  133  A    between atoms: _309  and  _310
REMARK  134  A    between atoms: _313  and  _315
REMARK  135  A    between atoms: _315  and  _316
REMARK  136  A    between atoms: _315  and  _318
REMARK  137  A    between atoms: _318  and  _319
REMARK  138  A    between atoms: _322  and  _324
REMARK  139  A    between atoms: _324  and  _325
REMARK  140  A    between atoms: _328  and  _330
REMARK  141  A    between atoms: _330  and  _331
REMARK  142  A    between atoms: _330  and  _333
REMARK  143  A    between atoms: _333  and  _334
REMARK  144  A    between atoms: _340  and  _342
REMARK  145  A    between atoms: _342  and  _343
REMARK  146  A    between atoms: _342  and  _345
REMARK  147  A    between atoms: _345  and  _346
REMARK  148  A    between atoms: _349  and  _351
REMARK  149  A    between atoms: _351  and  _352
REMARK  150  A    between atoms: _351  and  _354
REMARK  151  A    between atoms: _354  and  _355
REMARK  152  A    between atoms: _358  and  _360
REMARK  153  A    between atoms: _360  and  _361
REMARK  154  A    between atoms: _360  and  _363
REMARK  155  A    between atoms: _363  and  _364
REMARK  156  A    between atoms: _369  and  _371
REMARK  157  A    between atoms: _371  and  _372
REMARK  158  A    between atoms: _371  and  _374
REMARK  159  A    between atoms: _374  and  _375
REMARK  160  A    between atoms: _378  and  _380
REMARK  161  A    between atoms: _380  and  _381
REMARK  162  A    between atoms: _380  and  _383
REMARK  163  A    between atoms: _383  and  _384
REMARK  164  A    between atoms: _384  and  _385
REMARK  165  A    between atoms: _390  and  _392
REMARK  166  A    between atoms: _392  and  _393
REMARK  167  A    between atoms: _392  and  _395
REMARK  168  A    between atoms: _395  and  _396
REMARK  169  A    between atoms: _396  and  _397
REMARK  170  A    between atoms: _402  and  _404
REMARK  171  A    between atoms: _404  and  _405
REMARK  172  A    between atoms: _407  and  _409
REMARK  173  A    between atoms: _409  and  _410
REMARK  174  A    between atoms: _409  and  _412
REMARK  175  A    between atoms: _412  and  _413
REMARK  176  A    between atoms: _419  and  _421
REMARK  177  A    between atoms: _421  and  _422
REMARK  178  A    between atoms: _421  and  _424
REMARK  179  A    between atoms: _424  and  _425
REMARK  180  A    between atoms: _428  and  _430
REMARK  181  A    between atoms: _430  and  _431
REMARK  182  A    between atoms: _434  and  _436
REMARK  183  A    between atoms: _436  and  _437
REMARK  184  A    between atoms: _436  and  _439
REMARK  185  A    between atoms: _439  and  _440
REMARK  186  A    between atoms: _443  and  _445
REMARK  187  A    between atoms: _445  and  _446
REMARK  188  A    between atoms: _445  and  _448
REMARK  189  A    between atoms: _448  and  _449
REMARK  190  A    between atoms: _452  and  _454
REMARK  191  A    between atoms: _454  and  _455
REMARK  192  A    between atoms: _457  and  _459
REMARK  193  A    between atoms: _459  and  _460
REMARK  194  A    between atoms: _459  and  _462
REMARK  195  A    between atoms: _462  and  _463
REMARK  196  A    between atoms: _466  and  _468
REMARK  197  A    between atoms: _468  and  _469
REMARK  198  A    between atoms: _468  and  _471
REMARK  199  A    between atoms: _471  and  _472
REMARK  200  A    between atoms: _475  and  _477
REMARK  201  A    between atoms: _477  and  _478
REMARK  202  A    between atoms: _477  and  _480
REMARK  203  A    between atoms: _480  and  _481
REMARK  204  A    between atoms: _484  and  _486
REMARK  205  A    between atoms: _486  and  _487
REMARK  206  A    between atoms: _486  and  _489
REMARK  207  A    between atoms: _489  and  _490
REMARK  208  A    between atoms: _495  and  _496
REMARK  209  A    between atoms: _498  and  _500
REMARK  210  A    between atoms: _500  and  _501
REMARK  211  A    between atoms: _500  and  _503
REMARK  212  A    between atoms: _503  and  _504
REMARK  213  A    between atoms: _510  and  _512
REMARK  214  A    between atoms: _512  and  _513
REMARK  215  A    between atoms: _515  and  _517
REMARK  216  A    between atoms: _517  and  _518
REMARK  217  A    between atoms: _517  and  _520
REMARK  218  A    between atoms: _520  and  _521
REMARK  219  A    between atoms: _524  and  _526
REMARK  220  A    between atoms: _526  and  _527
REMARK  221  A    between atoms: _529  and  _531
REMARK  222  A    between atoms: _531  and  _532
REMARK  223  A    between atoms: _531  and  _534
REMARK  224  A    between atoms: _534  and  _535
REMARK  225  A    between atoms: _538  and  _540
REMARK  226  A    between atoms: _540  and  _541
REMARK  227  A    between atoms: _540  and  _543
REMARK  228  A    between atoms: _543  and  _544
REMARK  229  A    between atoms: _549  and  _551
REMARK  230  A    between atoms: _551  and  _552
REMARK  231  A    between atoms: _551  and  _554
REMARK  232  A    between atoms: _554  and  _555
REMARK  233  A    between atoms: _558  and  _560
REMARK  234  A    between atoms: _560  and  _561
REMARK  235  A    between atoms: _563  and  _565
REMARK  236  A    between atoms: _565  and  _566
REMARK  237  A    between atoms: _565  and  _568
REMARK  238  A    between atoms: _568  and  _569
REMARK                            x       y       z     vdW  Elec       q    Type
REMARK                         _______ _______ _______ _____ _____    ______ ____
ROOT
ATOM      1  C   ILE A   1      -6.121  -9.665   3.448  0.00  0.00    +0.238 C 
ATOM      2  O   ILE A   1      -7.045 -10.248   4.007  0.00  0.00    -0.274 OA
ATOM      3  N   ASP A   2      -6.232  -9.163   2.209  0.00  0.00    -0.298 N 
ATOM      4  H   ASP A   2      -5.402  -8.723   1.763  0.00  0.00    +0.150 HD
ENDROOT
BRANCH   1   5
ATOM      5  CA  ILE A   1      -4.800  -9.499   4.192  0.00  0.00    +0.145 C 
BRANCH   5   6
ATOM      6  N   ILE A   1      -3.701  -9.127   3.308  0.00  0.00    -0.238 NA
ATOM      7  H   ILE A   1      -3.409  -8.130   3.253  0.00  0.00    +0.142 HD
ENDBRANCH   5   6
BRANCH   5   8
ATOM      8  CB  ILE A   1      -5.001  -8.448   5.284  0.00  0.00    +0.025 C 
ATOM      9  CG2 ILE A   1      -3.726  -8.332   6.138  0.00  0.00    +0.002 C 
BRANCH   8  10
ATOM     10  CG1 ILE A   1      -5.422  -7.069   4.818  0.00  0.00    +0.002 C 
ATOM     11  CD1 ILE A   1      -6.044  -6.157   5.861  0.00  0.00    +0.000 C 
ENDBRANCH   8  10
ENDBRANCH   5   8
ENDBRANCH   1   5
BRANCH   3  12
ATOM     12  CA  ASP A   2      -7.479  -9.219   1.480  0.00  0.00    +0.148 C 
BRANCH  12  13
ATOM     13  C   ASP A   2      -7.192  -9.092   0.001  0.00  0.00    +0.227 C 
ATOM     14  O   ASP A   2      -6.015  -8.965  -0.393  0.00  0.00    -0.286 OA
ENDBRANCH  12  13
BRANCH  12  15
ATOM     15  CB  ASP A   2      -8.444  -8.144   1.929  0.00  0.00    +0.142 C 
BRANCH  15  16
ATOM     16  CG  ASP A   2      -8.012  -6.731   1.797  0.00  0.00    +0.367 C 
ATOM     17  OD2 ASP A   2      -8.496  -5.883   2.583  0.00  0.00    -0.246 OA
ATOM     18  OD1 ASP A   2      -7.186  -6.454   0.915  0.00  0.00    -0.246 OA
ENDBRANCH  15  16
ENDBRANCH  12  15
ENDBRANCH   3  12
TORSDOF 8
REMARK  Name = ../refined-set-2016/3prs/3prs_pocket.pdb
REMARK  238 active torsions:
REMARK  status: ('A' for Active; 'I' for Inactive)
REMARK    1  A    between atoms: _1  and  _3
REMARK    2  A    between atoms: _3  and  _4
REMARK    3  A    between atoms: _3  and  _6
REMARK    4  A    between atoms: _6  and  _7
REMARK    5  A    between atoms: _10  and  _12
REMARK    6  A    between atoms: _12  and  _13
REMARK    7  A    between atoms: _12  and  _15
REMARK    8  A    between atoms: _15  and  _16
REMARK    9  A    between atoms: _19  and  _21
REMARK   10  A    between atoms: _21  and  _22
REMARK   11  A    between atoms: _21  and  _24
REMARK   12  A    between atoms: _24  and  _25
REMARK   13  A    between atoms: _28  and  _30
REMARK   14  A    between atoms: _30  and  _31
REMARK   15  A    between atoms: _30  and  _33
REMARK   16  A    between atoms: _33  and  _34
REMARK   17  A    between atoms: _37  and  _39
REMARK   18  A    between atoms: _39  and  _40
REMARK   19  A    between atoms: _39  and  _42
REMARK   20  A    between atoms: _42  and  _43
REMARK   21  A    between atoms: _46  and  _48
REMARK   22  A    between atoms: _48  and  _49
REMARK   23  A    between atoms: _52  and  _54
REMARK   24  A    between atoms: _54  and  _55
REMARK   25  A    between atoms: _54  and  _57
REMARK   26  A    between atoms: _57  and  _58
REMARK   27  A    between atoms: _63  and  _64
REMARK   28  A    between atoms: _66  and  _68
REMARK   29  A    between atoms: _68  and  _69
REMARK   30  A    between atoms: _68  and  _71
REMARK   31  A    between atoms: _71  and  _72
REMARK   32  A    between atoms: _75  and  _77
REMARK   33  A    between atoms: _77  and  _78
REMARK   34  A    between atoms: _77  and  _80
REMARK   35  A    between atoms: _80  and  _81
REMARK   36  A    between atoms: _87  and  _89
REMARK   37  A    between atoms: _89  and  _90
REMARK   38  A    between atoms: _89  and  _92
REMARK   39  A    between atoms: _92  and  _93
REMARK   40  A    between atoms: _96  and  _98
REMARK   41  A    between atoms: _98  and  _99
REMARK   42  A    between atoms: _98  and  _101
REMARK   43  A    between atoms: _101  and  _102
REMARK   44  A    between atoms: _105  and  _107
REMARK   45  A    between atoms: _107  and  _108
REMARK   46  A    between atoms: _110  and  _112
REMARK   47  A    between atoms: _112  and  _113
REMARK   48  A    between atoms: _112  and  _115
REMARK   49  A    between atoms: _115  and  _116
REMARK   50  A    between atoms: _118  and  _120
REMARK   51  A    between atoms: _120  and  _121
REMARK   52  A    between atoms: _120  and  _123
REMARK   53  A    between atoms: _123  and  _124
REMARK   54  A    between atoms: _126  and  _128
REMARK   55  A    between atoms: _128  and  _129
REMARK   56  A    between atoms: _128  and  _131
REMARK   57  A    between atoms: _131  and  _132
REMARK   58  A    between atoms: _135  and  _137
REMARK   59  A    between atoms: _137  and  _138
REMARK   60  A    between atoms: _137  and  _140
REMARK   61  A    between atoms: _140  and  _141
REMARK   62  A    between atoms: _151  and  _153
REMARK   63  A    between atoms: _153  and  _154
REMARK   64  A    between atoms: _153  and  _156
REMARK   65  A    between atoms: _156  and  _157
REMARK   66  A    between atoms: _159  and  _161
REMARK   67  A    between atoms: _161  and  _162
REMARK   68  A    between atoms: _161  and  _164
REMARK   69  A    between atoms: _164  and  _165
REMARK   70  A    between atoms: _168  and  _170
REMARK   71  A    between atoms: _170  and  _171
REMARK   72  A    between atoms: _170  and  _173
REMARK   73  A    between atoms: _173  and  _174
REMARK   74  A    between atoms: _176  and  _178
REMARK   75  A    between atoms: _178  and  _179
REMARK   76  A    between atoms: _178  and  _181
REMARK   77  A    between atoms: _181  and  _182
REMARK   78  A    between atoms: _187  and  _188
REMARK   79  A    between atoms: _190  and  _192
REMARK   80  A    between atoms: _192  and  _193
REMARK   81  A    between atoms: _195  and  _197
REMARK   82  A    between atoms: _197  and  _198
REMARK   83  A    between atoms: _197  and  _200
REMARK   84  A    between atoms: _200  and  _201
REMARK   85  A    between atoms: _204  and  _206
REMARK   86  A    between atoms: _206  and  _207
REMARK   87  A    between atoms: _209  and  _211
REMARK   88  A    between atoms: _211  and  _212
REMARK   89  A    between atoms: _211  and  _214
REMARK   90  A    between atoms: _214  and  _215
REMARK   91  A    between atoms: _217  and  _219
REMARK   92  A    between atoms: _219  and  _220
REMARK   93  A    between atoms: _219  and  _222
REMARK   94  A    between atoms: _222  and  _223
REMARK   95  A    between atoms: _225  and  _227
REMARK   96  A    between atoms: _227  and  _228
REMARK   97  A    between atoms: _227  and  _230
REMARK   98  A    between atoms: _230  and  _231
REMARK   99  A    between atoms: _233  and  _235
REMARK  100  A    between atoms: _235  and  _236
REMARK  101  A    between atoms: _235  and  _238
REMARK  102  A    between atoms: _238  and  _239
REMARK  103  A    between atoms: _245  and  _247
REMARK  104  A    between atoms: _247  and  _248
REMARK  105  A    between atoms: _247  and  _250
REMARK  106  A    between atoms: _250  and  _251
REMARK  107  A    between atoms: _251  and  _252
REMARK  108  A    between atoms: _255  and  _257
REMARK  109  A    between atoms: _257  and  _258
REMARK  110  A    between atoms: _257  and  _260
REMARK  111  A    between atoms: _260  and  _261
REMARK  112  A    between atoms: _264  and  _266
REMARK  113  A    between atoms: _266  and  _267
REMARK  114  A    between atoms: _266  and  _269
REMARK  115  A    between atoms: _269  and  _270
REMARK  116  A    between atoms: _272  and  _274
REMARK  117  A    between atoms: _274  and  _275
REMARK  118  A    between atoms: _274  and  _277
REMARK  119  A    between atoms: _277  and  _278
REMARK  120  A    between atoms: _281  and  _283
REMARK  121  A    between atoms: _283  and  _284
REMARK  122  A    between atoms: _283  and  _286
REMARK  123  A    between atoms: _286  and  _287
REMARK  124  A    between atoms: _290  and  _292
REMARK  125  A    between atoms: _292  and  _293
REMARK  126  A    between atoms: _295  and  _297
REMARK  127  A    between atoms: _297  and  _298
REMARK  128  A    between atoms: _297  and  _300
REMARK  129  A    between atoms: _300  and  _301
REMARK  130  A    between atoms: _304  and  _306
REMARK  131  A    between atoms: _306  and  _307
REMARK  132  A    between atoms: _306  and  _309
REMARK  133  A    between atoms: _309  and  _310
REMARK  134  A    between atoms: _313  and  _315
REMARK  135  A    between atoms: _315  and  _316
REMARK  136  A    between atoms: _315  and  _318
REMARK  137  A    between atoms: _318  and  _319
REMARK  138  A    between atoms: _322  and  _324
REMARK  139  A    between atoms: _324  and  _325
REMARK  140  A    between atoms: _328  and  _330
REMARK  141  A    between atoms: _330  and  _331
REMARK  142  A    between atoms: _330  and  _333
REMARK  143  A    between atoms: _333  and  _334
REMARK  144  A    between atoms: _340  and  _342
REMARK  145  A    between atoms: _342  and  _343
REMARK  146  A    between atoms: _342  and  _345
REMARK  147  A    between atoms: _345  and  _346
REMARK  148  A    between atoms: _349  and  _351
REMARK  149  A    between atoms: _351  and  _352
REMARK  150  A    between atoms: _351  and  _354
REMARK  151  A    between atoms: _354  and  _355
REMARK  152  A    between atoms: _358  and  _360
REMARK  153  A    between atoms: _360  and  _361
REMARK  154  A    between atoms: _360  and  _363
REMARK  155  A    between atoms: _363  and  _364
REMARK  156  A    between atoms: _369  and  _371
REMARK  157  A    between atoms: _371  and  _372
REMARK  158  A    between atoms: _371  and  _374
REMARK  159  A    between atoms: _374  and  _375
REMARK  160  A    between atoms: _378  and  _380
REMARK  161  A    between atoms: _380  and  _381
REMARK  162  A    between atoms: _380  and  _383
REMARK  163  A    between atoms: _383  and  _384
REMARK  164  A    between atoms: _384  and  _385
REMARK  165  A    between atoms: _390  and  _392
REMARK  166  A    between atoms: _392  and  _393
REMARK  167  A    between atoms: _392  and  _395
REMARK  168  A    between atoms: _395  and  _396
REMARK  169  A    between atoms: _396  and  _397
REMARK  170  A    between atoms: _402  and  _404
REMARK  171  A    between atoms: _404  and  _405
REMARK  172  A    between atoms: _407  and  _409
REMARK  173  A    between atoms: _409  and  _410
REMARK  174  A    between atoms: _409  and  _412
REMARK  175  A    between atoms: _412  and  _413
REMARK  176  A    between atoms: _419  and  _421
REMARK  177  A    between atoms: _421  and  _422
REMARK  178  A    between atoms: _421  and  _424
REMARK  179  A    between atoms: _424  and  _425
REMARK  180  A    between atoms: _428  and  _430
REMARK  181  A    between atoms: _430  and  _431
REMARK  182  A    between atoms: _434  and  _436
REMARK  183  A    between atoms: _436  and  _437
REMARK  184  A    between atoms: _436  and  _439
REMARK  185  A    between atoms: _439  and  _440
REMARK  186  A    between atoms: _443  and  _445
REMARK  187  A    between atoms: _445  and  _446
REMARK  188  A    between atoms: _445  and  _448
REMARK  189  A    between atoms: _448  and  _449
REMARK  190  A    between atoms: _452  and  _454
REMARK  191  A    between atoms: _454  and  _455
REMARK  192  A    between atoms: _457  and  _459
REMARK  193  A    between atoms: _459  and  _460
REMARK  194  A    between atoms: _459  and  _462
REMARK  195  A    between atoms: _462  and  _463
REMARK  196  A    between atoms: _466  and  _468
REMARK  197  A    between atoms: _468  and  _469
REMARK  198  A    between atoms: _468  and  _471
REMARK  199  A    between atoms: _471  and  _472
REMARK  200  A    between atoms: _475  and  _477
REMARK  201  A    between atoms: _477  and  _478
REMARK  202  A    between atoms: _477  and  _480
REMARK  203  A    between atoms: _480  and  _481
REMARK  204  A    between atoms: _484  and  _486
REMARK  205  A    between atoms: _486  and  _487
REMARK  206  A    between atoms: _486  and  _489
REMARK  207  A    between atoms: _489  and  _490
REMARK  208  A    between atoms: _495  and  _496
REMARK  209  A    between atoms: _498  and  _500
REMARK  210  A    between atoms: _500  and  _501
REMARK  211  A    between atoms: _500  and  _503
REMARK  212  A    between atoms: _503  and  _504
REMARK  213  A    between atoms: _510  and  _512
REMARK  214  A    between atoms: _512  and  _513
REMARK  215  A    between atoms: _515  and  _517
REMARK  216  A    between atoms: _517  and  _518
REMARK  217  A    between atoms: _517  and  _520
REMARK  218  A    between atoms: _520  and  _521
REMARK  219  A    between atoms: _524  and  _526
REMARK  220  A    between atoms: _526  and  _527
REMARK  221  A    between atoms: _529  and  _531
REMARK  222  A    between atoms: _531  and  _532
REMARK  223  A    between atoms: _531  and  _534
REMARK  224  A    between atoms: _534  and  _535
REMARK  225  A    between atoms: _538  and  _540
REMARK  226  A    between atoms: _540  and  _541
REMARK  227  A    between atoms: _540  and  _543
REMARK  228  A    between atoms: _543  and  _544
REMARK  229  A    between atoms: _549  and  _551
REMARK  230  A    between atoms: _551  and  _552
REMARK  231  A    between atoms: _551  and  _554
REMARK  232  A    between atoms: _554  and  _555
REMARK  233  A    between atoms: _558  and  _560
REMARK  234  A    between atoms: _560  and  _561
REMARK  235  A    between atoms: _563  and  _565
REMARK  236  A    between atoms: _565  and  _566
REMARK  237  A    between atoms: _565  and  _568
REMARK  238  A    between atoms: _568  and  _569
REMARK                            x       y       z     vdW  Elec       q    Type
REMARK                         _______ _______ _______ _____ _____    ______ ____
ROOT
ATOM      1  CA  ASP A   3      -5.030  -3.334   1.822  0.00  0.00    +0.160 C 
ENDROOT
BRANCH   1   2
ATOM      2  C   ASP A   3      -3.885  -3.195   2.821  0.00  0.00    +0.241 C 
ATOM      3  O   ASP A   3      -3.562  -2.094   3.291  0.00  0.00    -0.273 OA
ATOM      4  N   ALA A   4      -3.297  -4.323   3.198  0.00  0.00    -0.297 N 
ATOM      5  H   ALA A   4      -3.663  -5.216   2.810  0.00  0.00    +0.150 HD
BRANCH   4   6
ATOM      6  CA  ALA A   4      -2.174  -4.391   4.119  0.00  0.00    +0.149 C 
ATOM      7  CB  ALA A   4      -2.554  -4.159   5.557  0.00  0.00    +0.031 C 
BRANCH   6   8
ATOM      8  C   ALA A   4      -1.562  -5.769   3.982  0.00  0.00    +0.241 C 
ATOM      9  N   TYR A   5      -0.391  -5.931   4.585  0.00  0.00    -0.298 N 
ATOM     10  H   TYR A   5       0.022  -5.130   5.104  0.00  0.00    +0.150 HD
ATOM     11  O   ALA A   4      -2.175  -6.640   3.364  0.00  0.00    -0.273 OA
BRANCH   9  12
ATOM     12  CA  TYR A   5       0.341  -7.204   4.544  0.00  0.00    +0.141 C 
BRANCH  12  13
ATOM     13  C   TYR A   5       0.648  -7.641   5.972  0.00  0.00    +0.227 C 
ATOM     14  O   TYR A   5       1.007  -6.791   6.790  0.00  0.00    -0.286 OA
ENDBRANCH  12  13
BRANCH  12  15
ATOM     15  CB  TYR A   5       1.606  -7.030   3.749  0.00  0.00    +0.054 C 
BRANCH  15  16
ATOM     16  CG  TYR A   5       1.391  -6.661   2.295  0.00  0.00    -0.020 A 
ATOM     17  CD2 TYR A   5       1.107  -5.358   1.943  0.00  0.00    -0.001 A 
ATOM     18  CE2 TYR A   5       0.907  -5.009   0.646  0.00  0.00    +0.036 A 
ATOM     19  CZ  TYR A   5       0.995  -5.918  -0.372  0.00  0.00    +0.134 A 
ATOM     20  CE1 TYR A   5       1.291  -7.237  -0.088  0.00  0.00    +0.036 A 
ATOM     21  CD1 TYR A   5       1.475  -7.559   1.261  0.00  0.00    -0.001 A 
BRANCH  19  22
ATOM     22  OH  TYR A   5       0.782  -5.513  -1.669  0.00  0.00    -0.506 OA
ATOM     23  HH  TYR A   5       0.883  -6.288  -2.276  0.00  0.00    +0.292 HD
ENDBRANCH  19  22
ENDBRANCH  15  16
ENDBRANCH  12  15
ENDBRANCH   9  12
ENDBRANCH   6   8
ENDBRANCH   4   6
ENDBRANCH   1   2
BRANCH   1  25
ATOM     24  C   ASP A   2      -3.836  -4.517   0.053  0.00  0.00    +0.241 C 
ATOM     25  N   ASP A   3      -4.843  -4.502   0.931  0.00  0.00    -0.297 N 
ATOM     26  H   ASP A   3      -5.495  -5.310   0.989  0.00  0.00    +0.150 HD
ATOM     27  O   ASP A   2      -2.967  -3.643   0.065  0.00  0.00    -0.273 OA
BRANCH  24  28
ATOM     28  CA  ASP A   2      -3.730  -5.695  -0.913  0.00  0.00    +0.160 C 
BRANCH  28  30
ATOM     29  C   LEU A   1      -5.734  -5.131  -2.162  0.00  0.00    +0.238 C 
ATOM     30  N   ASP A   2      -5.054  -6.033  -1.454  0.00  0.00    -0.297 N 
ATOM     31  H   ASP A   2      -5.460  -6.975  -1.285  0.00  0.00    +0.150 HD
ATOM     32  O   LEU A   1      -5.254  -4.021  -2.443  0.00  0.00    -0.274 OA
BRANCH  29  33
ATOM     33  CA  LEU A   1      -7.147  -5.495  -2.578  0.00  0.00    +0.145 C 
BRANCH  33  34
ATOM     34  N   LEU A   1      -7.553  -6.809  -2.102  0.00  0.00    -0.238 NA
ATOM     35  H   LEU A   1      -7.815  -6.919  -1.102  0.00  0.00    +0.142 HD
ENDBRANCH  33  34
BRANCH  33  36
ATOM     36  CB  LEU A   1      -8.064  -4.400  -2.017  0.00  0.00    +0.026 C 
BRANCH  36  37
ATOM     37  CG  LEU A   1      -9.524  -4.511  -2.418  0.00  0.00    +0.002 C 
ATOM     38  CD2 LEU A   1     -10.331  -3.441  -1.720  0.00  0.00    +0.000 C 
ATOM     39  CD1 LEU A   1      -9.634  -4.384  -3.929  0.00  0.00    +0.000 C 
ENDBRANCH  36  37
ENDBRANCH  33  36
ENDBRANCH  29  33
ENDBRANCH  28  30
BRANCH  28  40
ATOM     40  CB  ASP A   2      -2.688  -5.437  -1.978  0.00  0.00    +0.143 C 
BRANCH  40  41
ATOM     41  CG  ASP A   2      -2.413  -6.567  -2.929  0.00  0.00    +0.367 C 
ATOM     42  OD2 ASP A   2      -2.733  -7.745  -2.644  0.00  0.00    -0.246 OA
ATOM     43  OD1 ASP A   2      -1.812  -6.238  -3.990  0.00  0.00    -0.246 OA
ENDBRANCH  40  41
ENDBRANCH  28  40
ENDBRANCH  24  28
ENDBRANCH   1  25
BRANCH   1  44
ATOM     44  CB  ASP A   3      -6.405  -3.366   2.491  0.00  0.00    +0.143 C 
BRANCH  44  45
ATOM     45  CG  ASP A   3      -7.504  -2.974   1.523  0.00  0.00    +0.367 C 
ATOM     46  OD2 ASP A   3      -8.611  -3.581   1.610  0.00  0.00    -0.246 OA
ATOM     47  OD1 ASP A   3      -7.290  -2.055   0.714  0.00  0.00    -0.246 OA
ENDBRANCH  44  45
ENDBRANCH   1  44
TORSDOF 19
REMARK  Name = ../refined-set-2016/3prs/3prs_pocket.pdb
REMARK  238 active torsions:
REMARK  status: ('A' for Active; 'I' for Inactive)
REMARK    1  A    between atoms: _1  and  _3
REMARK    2  A    between atoms: _3  and  _4
REMARK    3  A    between atoms: _3  and  _6
REMARK    4  A    between atoms: _6  and  _7
REMARK    5  A    between atoms: _10  and  _12
REMARK    6  A    between atoms: _12  and  _13
REMARK    7  A    between atoms: _12  and  _15
REMARK    8  A    between atoms: _15  and  _16
REMARK    9  A    between atoms: _19  and  _21
REMARK   10  A    between atoms: _21  and  _22
REMARK   11  A    between atoms: _21  and  _24
REMARK   12  A    between atoms: _24  and  _25
REMARK   13  A    between atoms: _28  and  _30
REMARK   14  A    between atoms: _30  and  _31
REMARK   15  A    between atoms: _30  and  _33
REMARK   16  A    between atoms: _33  and  _34
REMARK   17  A    between atoms: _37  and  _39
REMARK   18  A    between atoms: _39  and  _40
REMARK   19  A    between atoms: _39  and  _42
REMARK   20  A    between atoms: _42  and  _43
REMARK   21  A    between atoms: _46  and  _48
REMARK   22  A    between atoms: _48  and  _49
REMARK   23  A    between atoms: _52  and  _54
REMARK   24  A    between atoms: _54  and  _55
REMARK   25  A    between atoms: _54  and  _57
REMARK   26  A    between atoms: _57  and  _58
REMARK   27  A    between atoms: _63  and  _64
REMARK   28  A    between atoms: _66  and  _68
REMARK   29  A    between atoms: _68  and  _69
REMARK   30  A    between atoms: _68  and  _71
REMARK   31  A    between atoms: _71  and  _72
REMARK   32  A    between atoms: _75  and  _77
REMARK   33  A    between atoms: _77  and  _78
REMARK   34  A    between atoms: _77  and  _80
REMARK   35  A    between atoms: _80  and  _81
REMARK   36  A    between atoms: _87  and  _89
REMARK   37  A    between atoms: _89  and  _90
REMARK   38  A    between atoms: _89  and  _92
REMARK   39  A    between atoms: _92  and  _93
REMARK   40  A    between atoms: _96  and  _98
REMARK   41  A    between atoms: _98  and  _99
REMARK   42  A    between atoms: _98  and  _101
REMARK   43  A    between atoms: _101  and  _102
REMARK   44  A    between atoms: _105  and  _107
REMARK   45  A    between atoms: _107  and  _108
REMARK   46  A    between atoms: _110  and  _112
REMARK   47  A    between atoms: _112  and  _113
REMARK   48  A    between atoms: _112  and  _115
REMARK   49  A    between atoms: _115  and  _116
REMARK   50  A    between atoms: _118  and  _120
REMARK   51  A    between atoms: _120  and  _121
REMARK   52  A    between atoms: _120  and  _123
REMARK   53  A    between atoms: _123  and  _124
REMARK   54  A    between atoms: _126  and  _128
REMARK   55  A    between atoms: _128  and  _129
REMARK   56  A    between atoms: _128  and  _131
REMARK   57  A    between atoms: _131  and  _132
REMARK   58  A    between atoms: _135  and  _137
REMARK   59  A    between atoms: _137  and  _138
REMARK   60  A    between atoms: _137  and  _140
REMARK   61  A    between atoms: _140  and  _141
REMARK   62  A    between atoms: _151  and  _153
REMARK   63  A    between atoms: _153  and  _154
REMARK   64  A    between atoms: _153  and  _156
REMARK   65  A    between atoms: _156  and  _157
REMARK   66  A    between atoms: _159  and  _161
REMARK   67  A    between atoms: _161  and  _162
REMARK   68  A    between atoms: _161  and  _164
REMARK   69  A    between atoms: _164  and  _165
REMARK   70  A    between atoms: _168  and  _170
REMARK   71  A    between atoms: _170  and  _171
REMARK   72  A    between atoms: _170  and  _173
REMARK   73  A    between atoms: _173  and  _174
REMARK   74  A    between atoms: _176  and  _178
REMARK   75  A    between atoms: _178  and  _179
REMARK   76  A    between atoms: _178  and  _181
REMARK   77  A    between atoms: _181  and  _182
REMARK   78  A    between atoms: _187  and  _188
REMARK   79  A    between atoms: _190  and  _192
REMARK   80  A    between atoms: _192  and  _193
REMARK   81  A    between atoms: _195  and  _197
REMARK   82  A    between atoms: _197  and  _198
REMARK   83  A    between atoms: _197  and  _200
REMARK   84  A    between atoms: _200  and  _201
REMARK   85  A    between atoms: _204  and  _206
REMARK   86  A    between atoms: _206  and  _207
REMARK   87  A    between atoms: _209  and  _211
REMARK   88  A    between atoms: _211  and  _212
REMARK   89  A    between atoms: _211  and  _214
REMARK   90  A    between atoms: _214  and  _215
REMARK   91  A    between atoms: _217  and  _219
REMARK   92  A    between atoms: _219  and  _220
REMARK   93  A    between atoms: _219  and  _222
REMARK   94  A    between atoms: _222  and  _223
REMARK   95  A    between atoms: _225  and  _227
REMARK   96  A    between atoms: _227  and  _228
REMARK   97  A    between atoms: _227  and  _230
REMARK   98  A    between atoms: _230  and  _231
REMARK   99  A    between atoms: _233  and  _235
REMARK  100  A    between atoms: _235  and  _236
REMARK  101  A    between atoms: _235  and  _238
REMARK  102  A    between atoms: _238  and  _239
REMARK  103  A    between atoms: _245  and  _247
REMARK  104  A    between atoms: _247  and  _248
REMARK  105  A    between atoms: _247  and  _250
REMARK  106  A    between atoms: _250  and  _251
REMARK  107  A    between atoms: _251  and  _252
REMARK  108  A    between atoms: _255  and  _257
REMARK  109  A    between atoms: _257  and  _258
REMARK  110  A    between atoms: _257  and  _260
REMARK  111  A    between atoms: _260  and  _261
REMARK  112  A    between atoms: _264  and  _266
REMARK  113  A    between atoms: _266  and  _267
REMARK  114  A    between atoms: _266  and  _269
REMARK  115  A    between atoms: _269  and  _270
REMARK  116  A    between atoms: _272  and  _274
REMARK  117  A    between atoms: _274  and  _275
REMARK  118  A    between atoms: _274  and  _277
REMARK  119  A    between atoms: _277  and  _278
REMARK  120  A    between atoms: _281  and  _283
REMARK  121  A    between atoms: _283  and  _284
REMARK  122  A    between atoms: _283  and  _286
REMARK  123  A    between atoms: _286  and  _287
REMARK  124  A    between atoms: _290  and  _292
REMARK  125  A    between atoms: _292  and  _293
REMARK  126  A    between atoms: _295  and  _297
REMARK  127  A    between atoms: _297  and  _298
REMARK  128  A    between atoms: _297  and  _300
REMARK  129  A    between atoms: _300  and  _301
REMARK  130  A    between atoms: _304  and  _306
REMARK  131  A    between atoms: _306  and  _307
REMARK  132  A    between atoms: _306  and  _309
REMARK  133  A    between atoms: _309  and  _310
REMARK  134  A    between atoms: _313  and  _315
REMARK  135  A    between atoms: _315  and  _316
REMARK  136  A    between atoms: _315  and  _318
REMARK  137  A    between atoms: _318  and  _319
REMARK  138  A    between atoms: _322  and  _324
REMARK  139  A    between atoms: _324  and  _325
REMARK  140  A    between atoms: _328  and  _330
REMARK  141  A    between atoms: _330  and  _331
REMARK  142  A    between atoms: _330  and  _333
REMARK  143  A    between atoms: _333  and  _334
REMARK  144  A    between atoms: _340  and  _342
REMARK  145  A    between atoms: _342  and  _343
REMARK  146  A    between atoms: _342  and  _345
REMARK  147  A    between atoms: _345  and  _346
REMARK  148  A    between atoms: _349  and  _351
REMARK  149  A    between atoms: _351  and  _352
REMARK  150  A    between atoms: _351  and  _354
REMARK  151  A    between atoms: _354  and  _355
REMARK  152  A    between atoms: _358  and  _360
REMARK  153  A    between atoms: _360  and  _361
REMARK  154  A    between atoms: _360  and  _363
REMARK  155  A    between atoms: _363  and  _364
REMARK  156  A    between atoms: _369  and  _371
REMARK  157  A    between atoms: _371  and  _372
REMARK  158  A    between atoms: _371  and  _374
REMARK  159  A    between atoms: _374  and  _375
REMARK  160  A    between atoms: _378  and  _380
REMARK  161  A    between atoms: _380  and  _381
REMARK  162  A    between atoms: _380  and  _383
REMARK  163  A    between atoms: _383  and  _384
REMARK  164  A    between atoms: _384  and  _385
REMARK  165  A    between atoms: _390  and  _392
REMARK  166  A    between atoms: _392  and  _393
REMARK  167  A    between atoms: _392  and  _395
REMARK  168  A    between atoms: _395  and  _396
REMARK  169  A    between atoms: _396  and  _397
REMARK  170  A    between atoms: _402  and  _404
REMARK  171  A    between atoms: _404  and  _405
REMARK  172  A    between atoms: _407  and  _409
REMARK  173  A    between atoms: _409  and  _410
REMARK  174  A    between atoms: _409  and  _412
REMARK  175  A    between atoms: _412  and  _413
REMARK  176  A    between atoms: _419  and  _421
REMARK  177  A    between atoms: _421  and  _422
REMARK  178  A    between atoms: _421  and  _424
REMARK  179  A    between atoms: _424  and  _425
REMARK  180  A    between atoms: _428  and  _430
REMARK  181  A    between atoms: _430  and  _431
REMARK  182  A    between atoms: _434  and  _436
REMARK  183  A    between atoms: _436  and  _437
REMARK  184  A    between atoms: _436  and  _439
REMARK  185  A    between atoms: _439  and  _440
REMARK  186  A    between atoms: _443  and  _445
REMARK  187  A    between atoms: _445  and  _446
REMARK  188  A    between atoms: _445  and  _448
REMARK  189  A    between atoms: _448  and  _449
REMARK  190  A    between atoms: _452  and  _454
REMARK  191  A    between atoms: _454  and  _455
REMARK  192  A    between atoms: _457  and  _459
REMARK  193  A    between atoms: _459  and  _460
REMARK  194  A    between atoms: _459  and  _462
REMARK  195  A    between atoms: _462  and  _463
REMARK  196  A    between atoms: _466  and  _468
REMARK  197  A    between atoms: _468  and  _469
REMARK  198  A    between atoms: _468  and  _471
REMARK  199  A    between atoms: _471  and  _472
REMARK  200  A    between atoms: _475  and  _477
REMARK  201  A    between atoms: _477  and  _478
REMARK  202  A    between atoms: _477  and  _480
REMARK  203  A    between atoms: _480  and  _481
REMARK  204  A    between atoms: _484  and  _486
REMARK  205  A    between atoms: _486  and  _487
REMARK  206  A    between atoms: _486  and  _489
REMARK  207  A    between atoms: _489  and  _490
REMARK  208  A    between atoms: _495  and  _496
REMARK  209  A    between atoms: _498  and  _500
REMARK  210  A    between atoms: _500  and  _501
REMARK  211  A    between atoms: _500  and  _503
REMARK  212  A    between atoms: _503  and  _504
REMARK  213  A    between atoms: _510  and  _512
REMARK  214  A    between atoms: _512  and  _513
REMARK  215  A    between atoms: _515  and  _517
REMARK  216  A    between atoms: _517  and  _518
REMARK  217  A    between atoms: _517  and  _520
REMARK  218  A    between atoms: _520  and  _521
REMARK  219  A    between atoms: _524  and  _526
REMARK  220  A    between atoms: _526  and  _527
REMARK  221  A    between atoms: _529  and  _531
REMARK  222  A    between atoms: _531  and  _532
REMARK  223  A    between atoms: _531  and  _534
REMARK  224  A    between atoms: _534  and  _535
REMARK  225  A    between atoms: _538  and  _540
REMARK  226  A    between atoms: _540  and  _541
REMARK  227  A    between atoms: _540  and  _543
REMARK  228  A    between atoms: _543  and  _544
REMARK  229  A    between atoms: _549  and  _551
REMARK  230  A    between atoms: _551  and  _552
REMARK  231  A    between atoms: _551  and  _554
REMARK  232  A    between atoms: _554  and  _555
REMARK  233  A    between atoms: _558  and  _560
REMARK  234  A    between atoms: _560  and  _561
REMARK  235  A    between atoms: _563  and  _565
REMARK  236  A    between atoms: _565  and  _566
REMARK  237  A    between atoms: _565  and  _568
REMARK  238  A    between atoms: _568  and  _569
REMARK                            x       y       z     vdW  Elec       q    Type
REMARK                         _______ _______ _______ _____ _____    ______ ____
ROOT
ATOM      1  CA  THR A   4       8.250   1.450   8.124  0.00  0.00    +0.176 C 
ENDROOT
BRANCH   1   4
ATOM      2  C   ASP A   3       6.524   0.214   9.369  0.00  0.00    +0.241 C 
ATOM      3  O   ASP A   3       6.971   0.628  10.440  0.00  0.00    -0.273 OA
ATOM      4  N   THR A   4       7.103   0.617   8.268  0.00  0.00    -0.295 N 
ATOM      5  H   THR A   4       6.670   0.286   7.382  0.00  0.00    +0.150 HD
BRANCH   2   6
ATOM      6  CA  ASP A   3       5.264  -0.635   9.317  0.00  0.00    +0.160 C 
BRANCH   6   8
ATOM      7  C   PHE A   2       5.179  -3.004   8.881  0.00  0.00    +0.241 C 
ATOM      8  N   ASP A   3       5.553  -2.002   9.678  0.00  0.00    -0.297 N 
ATOM      9  H   ASP A   3       6.056  -2.207  10.565  0.00  0.00    +0.150 HD
ATOM     10  O   PHE A   2       4.764  -2.840   7.721  0.00  0.00    -0.273 OA
BRANCH   7  11
ATOM     11  CA  PHE A   2       5.319  -4.412   9.448  0.00  0.00    +0.153 C 
BRANCH  11  14
ATOM     12  C   ASP A   1       3.044  -4.742  10.268  0.00  0.00    +0.239 C 
ATOM     13  O   ASP A   1       3.176  -3.876  11.142  0.00  0.00    -0.274 OA
ATOM     14  N   PHE A   2       4.022  -5.085   9.459  0.00  0.00    -0.297 N 
ATOM     15  H   PHE A   2       3.865  -5.871   8.797  0.00  0.00    +0.150 HD
BRANCH  12  16
ATOM     16  CA  ASP A   1       1.729  -5.474  10.106  0.00  0.00    +0.156 C 
BRANCH  16  17
ATOM     17  N   ASP A   1       1.571  -6.380  11.244  0.00  0.00    -0.238 NA
ATOM     18  H   ASP A   1       1.108  -6.037  12.110  0.00  0.00    +0.142 HD
ENDBRANCH  16  17
BRANCH  16  19
ATOM     19  CB  ASP A   1       0.494  -4.560  10.086  0.00  0.00    +0.140 C 
BRANCH  19  20
ATOM     20  CG  ASP A   1       0.382  -3.648   8.892  0.00  0.00    +0.367 C 
ATOM     21  OD2 ASP A   1      -0.738  -3.069   8.709  0.00  0.00    -0.246 OA
ATOM     22  OD1 ASP A   1       1.386  -3.491   8.172  0.00  0.00    -0.246 OA
ENDBRANCH  19  20
ENDBRANCH  16  19
ENDBRANCH  12  16
ENDBRANCH  11  14
BRANCH  11  23
ATOM     23  CB  PHE A   2       6.364  -5.193   8.650  0.00  0.00    +0.055 C 
BRANCH  23  24
ATOM     24  CG  PHE A   2       6.871  -6.448   9.340  0.00  0.00    -0.020 A 
ATOM     25  CD2 PHE A   2       6.175  -7.099  10.329  0.00  0.00    -0.004 A 
ATOM     26  CE2 PHE A   2       6.702  -8.252  10.937  0.00  0.00    -0.000 A 
ATOM     27  CZ  PHE A   2       7.921  -8.736  10.508  0.00  0.00    -0.000 A 
ATOM     28  CE1 PHE A   2       8.627  -8.094   9.492  0.00  0.00    -0.000 A 
ATOM     29  CD1 PHE A   2       8.107  -6.953   8.929  0.00  0.00    -0.004 A 
ENDBRANCH  23  24
ENDBRANCH  11  23
ENDBRANCH   7  11
ENDBRANCH   6   8
BRANCH   6  30
ATOM     30  CB  ASP A   3       4.227  -0.069  10.286  0.00  0.00    +0.143 C 
BRANCH  30  31
ATOM     31  CG  ASP A   3       3.854   1.362   9.901  0.00  0.00    +0.367 C 
ATOM     32  OD2 ASP A   3       3.225   2.090  10.701  0.00  0.00    -0.246 OA
ATOM     33  OD1 ASP A   3       4.208   1.728   8.766  0.00  0.00    -0.246 OA
ENDBRANCH  30  31
ENDBRANCH   6  30
ENDBRANCH   2   6
ENDBRANCH   1   4
BRANCH   1  34
ATOM     34  C   THR A   4       7.884   2.907   8.405  0.00  0.00    +0.243 C 
ATOM     35  N   GLY A   5       6.626   3.246   8.671  0.00  0.00    -0.295 N 
ATOM     36  H   GLY A   5       5.920   2.489   8.574  0.00  0.00    +0.150 HD
ATOM     37  O   THR A   4       8.815   3.737   8.423  0.00  0.00    -0.273 OA
BRANCH  35  38
ATOM     38  CA  GLY A   5       6.123   4.527   9.075  0.00  0.00    +0.176 C 
BRANCH  38  39
ATOM     39  C   GLY A   5       5.765   4.675  10.533  0.00  0.00    +0.243 C 
ATOM     40  N   SER A   6       6.136   3.746  11.423  0.00  0.00    -0.295 N 
ATOM     41  H   SER A   6       6.533   2.851  11.071  0.00  0.00    +0.150 HD
ATOM     42  O   GLY A   5       5.160   5.697  10.897  0.00  0.00    -0.273 OA
BRANCH  40  43
ATOM     43  CA  SER A   6       6.010   3.930  12.849  0.00  0.00    +0.178 C 
BRANCH  43  44
ATOM     44  C   SER A   6       7.046   3.063  13.564  0.00  0.00    +0.243 C 
ATOM     45  N   SER A   7       7.132   3.200  14.901  0.00  0.00    -0.295 N 
ATOM     46  H   SER A   7       6.401   3.714  15.432  0.00  0.00    +0.150 HD
ATOM     47  O   SER A   6       7.741   2.273  12.924  0.00  0.00    -0.273 OA
BRANCH  45  48
ATOM     48  CA  SER A   7       8.275   2.610  15.584  0.00  0.00    +0.178 C 
BRANCH  48  49
ATOM     49  C   SER A   7       7.917   1.887  16.850  0.00  0.00    +0.243 C 
ATOM     50  O   SER A   7       8.744   1.709  17.715  0.00  0.00    -0.273 OA
ATOM     51  N   ASP A   8       6.654   1.444  16.971  0.00  0.00    -0.297 N 
ATOM     52  H   ASP A   8       5.972   1.671  16.219  0.00  0.00    +0.150 HD
BRANCH  51  53
ATOM     53  CA  ASP A   8       6.196   0.654  18.120  0.00  0.00    +0.148 C 
BRANCH  53  54
ATOM     54  C   ASP A   8       5.871  -0.752  17.650  0.00  0.00    +0.227 C 
ATOM     55  O   ASP A   8       5.214  -0.914  16.618  0.00  0.00    -0.286 OA
ENDBRANCH  53  54
BRANCH  53  56
ATOM     56  CB  ASP A   8       4.985   1.271  18.827  0.00  0.00    +0.142 C 
BRANCH  56  57
ATOM     57  CG  ASP A   8       5.300   2.511  19.610  0.00  0.00    +0.367 C 
ATOM     58  OD2 ASP A   8       4.788   2.579  20.768  0.00  0.00    -0.246 OA
ATOM     59  OD1 ASP A   8       6.020   3.421  19.116  0.00  0.00    -0.246 OA
ENDBRANCH  56  57
ENDBRANCH  53  56
ENDBRANCH  51  53
ENDBRANCH  48  49
BRANCH  48  60
ATOM     60  CB  SER A   7       9.337   3.712  15.855  0.00  0.00    +0.166 C 
BRANCH  60  61
ATOM     61  OG  SER A   7       9.647   4.312  14.640  0.00  0.00    -0.380 OA
ATOM     62  H   SER A   7      10.324   5.020  14.786  0.00  0.00    +0.211 HD
ENDBRANCH  60  61
ENDBRANCH  48  60
ENDBRANCH  45  48
ENDBRANCH  43  44
BRANCH  43  63
ATOM     63  CB  SER A   6       4.592   3.621  13.281  0.00  0.00    +0.166 C 
BRANCH  63  64
ATOM     64  OG  SER A   6       4.242   2.260  13.157  0.00  0.00    -0.380 OA
ATOM     65  H   SER A   6       4.328   1.983  12.210  0.00  0.00    +0.211 HD
ENDBRANCH  63  64
ENDBRANCH  43  63
ENDBRANCH  40  43
ENDBRANCH  38  39
ENDBRANCH  35  38
ENDBRANCH   1  34
BRANCH   1  66
ATOM     66  CB  THR A   4       8.955   1.324   6.761  0.00  0.00    +0.137 C 
ATOM     67  CG2 THR A   4       9.359  -0.096   6.478  0.00  0.00    +0.034 C 
BRANCH  66  68
ATOM     68  OG1 THR A   4       8.063   1.731   5.702  0.00  0.00    -0.382 OA
ATOM     69  HG1 THR A   4       7.793   2.673   5.843  0.00  0.00    +0.210 HD
ENDBRANCH  66  68
ENDBRANCH   1  66
TORSDOF 30
REMARK  Name = ../refined-set-2016/3prs/3prs_pocket.pdb
REMARK  238 active torsions:
REMARK  status: ('A' for Active; 'I' for Inactive)
REMARK    1  A    between atoms: _1  and  _3
REMARK    2  A    between atoms: _3  and  _4
REMARK    3  A    between atoms: _3  and  _6
REMARK    4  A    between atoms: _6  and  _7
REMARK    5  A    between atoms: _10  and  _12
REMARK    6  A    between atoms: _12  and  _13
REMARK    7  A    between atoms: _12  and  _15
REMARK    8  A    between atoms: _15  and  _16
REMARK    9  A    between atoms: _19  and  _21
REMARK   10  A    between atoms: _21  and  _22
REMARK   11  A    between atoms: _21  and  _24
REMARK   12  A    between atoms: _24  and  _25
REMARK   13  A    between atoms: _28  and  _30
REMARK   14  A    between atoms: _30  and  _31
REMARK   15  A    between atoms: _30  and  _33
REMARK   16  A    between atoms: _33  and  _34
REMARK   17  A    between atoms: _37  and  _39
REMARK   18  A    between atoms: _39  and  _40
REMARK   19  A    between atoms: _39  and  _42
REMARK   20  A    between atoms: _42  and  _43
REMARK   21  A    between atoms: _46  and  _48
REMARK   22  A    between atoms: _48  and  _49
REMARK   23  A    between atoms: _52  and  _54
REMARK   24  A    between atoms: _54  and  _55
REMARK   25  A    between atoms: _54  and  _57
REMARK   26  A    between atoms: _57  and  _58
REMARK   27  A    between atoms: _63  and  _64
REMARK   28  A    between atoms: _66  and  _68
REMARK   29  A    between atoms: _68  and  _69
REMARK   30  A    between atoms: _68  and  _71
REMARK   31  A    between atoms: _71  and  _72
REMARK   32  A    between atoms: _75  and  _77
REMARK   33  A    between atoms: _77  and  _78
REMARK   34  A    between atoms: _77  and  _80
REMARK   35  A    between atoms: _80  and  _81
REMARK   36  A    between atoms: _87  and  _89
REMARK   37  A    between atoms: _89  and  _90
REMARK   38  A    between atoms: _89  and  _92
REMARK   39  A    between atoms: _92  and  _93
REMARK   40  A    between atoms: _96  and  _98
REMARK   41  A    between atoms: _98  and  _99
REMARK   42  A    between atoms: _98  and  _101
REMARK   43  A    between atoms: _101  and  _102
REMARK   44  A    between atoms: _105  and  _107
REMARK   45  A    between atoms: _107  and  _108
REMARK   46  A    between atoms: _110  and  _112
REMARK   47  A    between atoms: _112  and  _113
REMARK   48  A    between atoms: _112  and  _115
REMARK   49  A    between atoms: _115  and  _116
REMARK   50  A    between atoms: _118  and  _120
REMARK   51  A    between atoms: _120  and  _121
REMARK   52  A    between atoms: _120  and  _123
REMARK   53  A    between atoms: _123  and  _124
REMARK   54  A    between atoms: _126  and  _128
REMARK   55  A    between atoms: _128  and  _129
REMARK   56  A    between atoms: _128  and  _131
REMARK   57  A    between atoms: _131  and  _132
REMARK   58  A    between atoms: _135  and  _137
REMARK   59  A    between atoms: _137  and  _138
REMARK   60  A    between atoms: _137  and  _140
REMARK   61  A    between atoms: _140  and  _141
REMARK   62  A    between atoms: _151  and  _153
REMARK   63  A    between atoms: _153  and  _154
REMARK   64  A    between atoms: _153  and  _156
REMARK   65  A    between atoms: _156  and  _157
REMARK   66  A    between atoms: _159  and  _161
REMARK   67  A    between atoms: _161  and  _162
REMARK   68  A    between atoms: _161  and  _164
REMARK   69  A    between atoms: _164  and  _165
REMARK   70  A    between atoms: _168  and  _170
REMARK   71  A    between atoms: _170  and  _171
REMARK   72  A    between atoms: _170  and  _173
REMARK   73  A    between atoms: _173  and  _174
REMARK   74  A    between atoms: _176  and  _178
REMARK   75  A    between atoms: _178  and  _179
REMARK   76  A    between atoms: _178  and  _181
REMARK   77  A    between atoms: _181  and  _182
REMARK   78  A    between atoms: _187  and  _188
REMARK   79  A    between atoms: _190  and  _192
REMARK   80  A    between atoms: _192  and  _193
REMARK   81  A    between atoms: _195  and  _197
REMARK   82  A    between atoms: _197  and  _198
REMARK   83  A    between atoms: _197  and  _200
REMARK   84  A    between atoms: _200  and  _201
REMARK   85  A    between atoms: _204  and  _206
REMARK   86  A    between atoms: _206  and  _207
REMARK   87  A    between atoms: _209  and  _211
REMARK   88  A    between atoms: _211  and  _212
REMARK   89  A    between atoms: _211  and  _214
REMARK   90  A    between atoms: _214  and  _215
REMARK   91  A    between atoms: _217  and  _219
REMARK   92  A    between atoms: _219  and  _220
REMARK   93  A    between atoms: _219  and  _222
REMARK   94  A    between atoms: _222  and  _223
REMARK   95  A    between atoms: _225  and  _227
REMARK   96  A    between atoms: _227  and  _228
REMARK   97  A    between atoms: _227  and  _230
REMARK   98  A    between atoms: _230  and  _231
REMARK   99  A    between atoms: _233  and  _235
REMARK  100  A    between atoms: _235  and  _236
REMARK  101  A    between atoms: _235  and  _238
REMARK  102  A    between atoms: _238  and  _239
REMARK  103  A    between atoms: _245  and  _247
REMARK  104  A    between atoms: _247  and  _248
REMARK  105  A    between atoms: _247  and  _250
REMARK  106  A    between atoms: _250  and  _251
REMARK  107  A    between atoms: _251  and  _252
REMARK  108  A    between atoms: _255  and  _257
REMARK  109  A    between atoms: _257  and  _258
REMARK  110  A    between atoms: _257  and  _260
REMARK  111  A    between atoms: _260  and  _261
REMARK  112  A    between atoms: _264  and  _266
REMARK  113  A    between atoms: _266  and  _267
REMARK  114  A    between atoms: _266  and  _269
REMARK  115  A    between atoms: _269  and  _270
REMARK  116  A    between atoms: _272  and  _274
REMARK  117  A    between atoms: _274  and  _275
REMARK  118  A    between atoms: _274  and  _277
REMARK  119  A    between atoms: _277  and  _278
REMARK  120  A    between atoms: _281  and  _283
REMARK  121  A    between atoms: _283  and  _284
REMARK  122  A    between atoms: _283  and  _286
REMARK  123  A    between atoms: _286  and  _287
REMARK  124  A    between atoms: _290  and  _292
REMARK  125  A    between atoms: _292  and  _293
REMARK  126  A    between atoms: _295  and  _297
REMARK  127  A    between atoms: _297  and  _298
REMARK  128  A    between atoms: _297  and  _300
REMARK  129  A    between atoms: _300  and  _301
REMARK  130  A    between atoms: _304  and  _306
REMARK  131  A    between atoms: _306  and  _307
REMARK  132  A    between atoms: _306  and  _309
REMARK  133  A    between atoms: _309  and  _310
REMARK  134  A    between atoms: _313  and  _315
REMARK  135  A    between atoms: _315  and  _316
REMARK  136  A    between atoms: _315  and  _318
REMARK  137  A    between atoms: _318  and  _319
REMARK  138  A    between atoms: _322  and  _324
REMARK  139  A    between atoms: _324  and  _325
REMARK  140  A    between atoms: _328  and  _330
REMARK  141  A    between atoms: _330  and  _331
REMARK  142  A    between atoms: _330  and  _333
REMARK  143  A    between atoms: _333  and  _334
REMARK  144  A    between atoms: _340  and  _342
REMARK  145  A    between atoms: _342  and  _343
REMARK  146  A    between atoms: _342  and  _345
REMARK  147  A    between atoms: _345  and  _346
REMARK  148  A    between atoms: _349  and  _351
REMARK  149  A    between atoms: _351  and  _352
REMARK  150  A    between atoms: _351  and  _354
REMARK  151  A    between atoms: _354  and  _355
REMARK  152  A    between atoms: _358  and  _360
REMARK  153  A    between atoms: _360  and  _361
REMARK  154  A    between atoms: _360  and  _363
REMARK  155  A    between atoms: _363  and  _364
REMARK  156  A    between atoms: _369  and  _371
REMARK  157  A    between atoms: _371  and  _372
REMARK  158  A    between atoms: _371  and  _374
REMARK  159  A    between atoms: _374  and  _375
REMARK  160  A    between atoms: _378  and  _380
REMARK  161  A    between atoms: _380  and  _381
REMARK  162  A    between atoms: _380  and  _383
REMARK  163  A    between atoms: _383  and  _384
REMARK  164  A    between atoms: _384  and  _385
REMARK  165  A    between atoms: _390  and  _392
REMARK  166  A    between atoms: _392  and  _393
REMARK  167  A    between atoms: _392  and  _395
REMARK  168  A    between atoms: _395  and  _396
REMARK  169  A    between atoms: _396  and  _397
REMARK  170  A    between atoms: _402  and  _404
REMARK  171  A    between atoms: _404  and  _405
REMARK  172  A    between atoms: _407  and  _409
REMARK  173  A    between atoms: _409  and  _410
REMARK  174  A    between atoms: _409  and  _412
REMARK  175  A    between atoms: _412  and  _413
REMARK  176  A    between atoms: _419  and  _421
REMARK  177  A    between atoms: _421  and  _422
REMARK  178  A    between atoms: _421  and  _424
REMARK  179  A    between atoms: _424  and  _425
REMARK  180  A    between atoms: _428  and  _430
REMARK  181  A    between atoms: _430  and  _431
REMARK  182  A    between atoms: _434  and  _436
REMARK  183  A    between atoms: _436  and  _437
REMARK  184  A    between atoms: _436  and  _439
REMARK  185  A    between atoms: _439  and  _440
REMARK  186  A    between atoms: _443  and  _445
REMARK  187  A    between atoms: _445  and  _446
REMARK  188  A    between atoms: _445  and  _448
REMARK  189  A    between atoms: _448  and  _449
REMARK  190  A    between atoms: _452  and  _454
REMARK  191  A    between atoms: _454  and  _455
REMARK  192  A    between atoms: _457  and  _459
REMARK  193  A    between atoms: _459  and  _460
REMARK  194  A    between atoms: _459  and  _462
REMARK  195  A    between atoms: _462  and  _463
REMARK  196  A    between atoms: _466  and  _468
REMARK  197  A    between atoms: _468  and  _469
REMARK  198  A    between atoms: _468  and  _471
REMARK  199  A    between atoms: _471  and  _472
REMARK  200  A    between atoms: _475  and  _477
REMARK  201  A    between atoms: _477  and  _478
REMARK  202  A    between atoms: _477  and  _480
REMARK  203  A    between atoms: _480  and  _481
REMARK  204  A    between atoms: _484  and  _486
REMARK  205  A    between atoms: _486  and  _487
REMARK  206  A    between atoms: _486  and  _489
REMARK  207  A    between atoms: _489  and  _490
REMARK  208  A    between atoms: _495  and  _496
REMARK  209  A    between atoms: _498  and  _500
REMARK  210  A    between atoms: _500  and  _501
REMARK  211  A    between atoms: _500  and  _503
REMARK  212  A    between atoms: _503  and  _504
REMARK  213  A    between atoms: _510  and  _512
REMARK  214  A    between atoms: _512  and  _513
REMARK  215  A    between atoms: _515  and  _517
REMARK  216  A    between atoms: _517  and  _518
REMARK  217  A    between atoms: _517  and  _520
REMARK  218  A    between atoms: _520  and  _521
REMARK  219  A    between atoms: _524  and  _526
REMARK  220  A    between atoms: _526  and  _527
REMARK  221  A    between atoms: _529  and  _531
REMARK  222  A    between atoms: _531  and  _532
REMARK  223  A    between atoms: _531  and  _534
REMARK  224  A    between atoms: _534  and  _535
REMARK  225  A    between atoms: _538  and  _540
REMARK  226  A    between atoms: _540  and  _541
REMARK  227  A    between atoms: _540  and  _543
REMARK  228  A    between atoms: _543  and  _544
REMARK  229  A    between atoms: _549  and  _551
REMARK  230  A    between atoms: _551  and  _552
REMARK  231  A    between atoms: _551  and  _554
REMARK  232  A    between atoms: _554  and  _555
REMARK  233  A    between atoms: _558  and  _560
REMARK  234  A    between atoms: _560  and  _561
REMARK  235  A    between atoms: _563  and  _565
REMARK  236  A    between atoms: _565  and  _566
REMARK  237  A    between atoms: _565  and  _568
REMARK  238  A    between atoms: _568  and  _569
REMARK                            x       y       z     vdW  Elec       q    Type
REMARK                         _______ _______ _______ _____ _____    ______ ____
ROOT
ATOM      1  CG  TRP A   1       0.812  -1.792  19.020  0.00  0.00    -0.002 A 
ATOM      2  CD2 TRP A   1      -0.536  -2.233  18.716  0.00  0.00    +0.013 A 
ATOM      3  CE3 TRP A   1      -1.370  -3.210  19.246  0.00  0.00    +0.001 A 
ATOM      4  CZ3 TRP A   1      -2.639  -3.399  18.728  0.00  0.00    +0.000 A 
ATOM      5  CH2 TRP A   1      -3.070  -2.596  17.666  0.00  0.00    +0.001 A 
ATOM      6  CZ2 TRP A   1      -2.305  -1.622  17.115  0.00  0.00    +0.017 A 
ATOM      7  CE2 TRP A   1      -1.010  -1.445  17.653  0.00  0.00    +0.056 A 
ATOM      8  NE1 TRP A   1      -0.029  -0.579  17.323  0.00  0.00    -0.352 N 
ATOM      9  HE1 TRP A   1      -0.082   0.134  16.568  0.00  0.00    +0.166 HD
ATOM     10  CD1 TRP A   1       1.032  -0.787  18.130  0.00  0.00    +0.068 A 
ENDROOT
BRANCH   1  11
ATOM     11  CB  TRP A   1       1.725  -2.313  20.080  0.00  0.00    +0.053 C 
BRANCH  11  12
ATOM     12  CA  TRP A   1       2.519  -3.593  19.834  0.00  0.00    +0.137 C 
BRANCH  12  13
ATOM     13  N   TRP A   1       3.606  -3.426  18.876  0.00  0.00    -0.239 NA
ATOM     14  H   TRP A   1       3.400  -3.370  17.858  0.00  0.00    +0.142 HD
ENDBRANCH  12  13
BRANCH  12  15
ATOM     15  C   TRP A   1       1.623  -4.723  19.349  0.00  0.00    +0.224 C 
ATOM     16  O   TRP A   1       1.513  -4.984  18.142  0.00  0.00    -0.287 OA
ENDBRANCH  12  15
ENDBRANCH  11  12
ENDBRANCH   1  11
TORSDOF 4
REMARK  Name = ../refined-set-2016/3prs/3prs_pocket.pdb
REMARK  238 active torsions:
REMARK  status: ('A' for Active; 'I' for Inactive)
REMARK    1  A    between atoms: _1  and  _3
REMARK    2  A    between atoms: _3  and  _4
REMARK    3  A    between atoms: _3  and  _6
REMARK    4  A    between atoms: _6  and  _7
REMARK    5  A    between atoms: _10  and  _12
REMARK    6  A    between atoms: _12  and  _13
REMARK    7  A    between atoms: _12  and  _15
REMARK    8  A    between atoms: _15  and  _16
REMARK    9  A    between atoms: _19  and  _21
REMARK   10  A    between atoms: _21  and  _22
REMARK   11  A    between atoms: _21  and  _24
REMARK   12  A    between atoms: _24  and  _25
REMARK   13  A    between atoms: _28  and  _30
REMARK   14  A    between atoms: _30  and  _31
REMARK   15  A    between atoms: _30  and  _33
REMARK   16  A    between atoms: _33  and  _34
REMARK   17  A    between atoms: _37  and  _39
REMARK   18  A    between atoms: _39  and  _40
REMARK   19  A    between atoms: _39  and  _42
REMARK   20  A    between atoms: _42  and  _43
REMARK   21  A    between atoms: _46  and  _48
REMARK   22  A    between atoms: _48  and  _49
REMARK   23  A    between atoms: _52  and  _54
REMARK   24  A    between atoms: _54  and  _55
REMARK   25  A    between atoms: _54  and  _57
REMARK   26  A    between atoms: _57  and  _58
REMARK   27  A    between atoms: _63  and  _64
REMARK   28  A    between atoms: _66  and  _68
REMARK   29  A    between atoms: _68  and  _69
REMARK   30  A    between atoms: _68  and  _71
REMARK   31  A    between atoms: _71  and  _72
REMARK   32  A    between atoms: _75  and  _77
REMARK   33  A    between atoms: _77  and  _78
REMARK   34  A    between atoms: _77  and  _80
REMARK   35  A    between atoms: _80  and  _81
REMARK   36  A    between atoms: _87  and  _89
REMARK   37  A    between atoms: _89  and  _90
REMARK   38  A    between atoms: _89  and  _92
REMARK   39  A    between atoms: _92  and  _93
REMARK   40  A    between atoms: _96  and  _98
REMARK   41  A    between atoms: _98  and  _99
REMARK   42  A    between atoms: _98  and  _101
REMARK   43  A    between atoms: _101  and  _102
REMARK   44  A    between atoms: _105  and  _107
REMARK   45  A    between atoms: _107  and  _108
REMARK   46  A    between atoms: _110  and  _112
REMARK   47  A    between atoms: _112  and  _113
REMARK   48  A    between atoms: _112  and  _115
REMARK   49  A    between atoms: _115  and  _116
REMARK   50  A    between atoms: _118  and  _120
REMARK   51  A    between atoms: _120  and  _121
REMARK   52  A    between atoms: _120  and  _123
REMARK   53  A    between atoms: _123  and  _124
REMARK   54  A    between atoms: _126  and  _128
REMARK   55  A    between atoms: _128  and  _129
REMARK   56  A    between atoms: _128  and  _131
REMARK   57  A    between atoms: _131  and  _132
REMARK   58  A    between atoms: _135  and  _137
REMARK   59  A    between atoms: _137  and  _138
REMARK   60  A    between atoms: _137  and  _140
REMARK   61  A    between atoms: _140  and  _141
REMARK   62  A    between atoms: _151  and  _153
REMARK   63  A    between atoms: _153  and  _154
REMARK   64  A    between atoms: _153  and  _156
REMARK   65  A    between atoms: _156  and  _157
REMARK   66  A    between atoms: _159  and  _161
REMARK   67  A    between atoms: _161  and  _162
REMARK   68  A    between atoms: _161  and  _164
REMARK   69  A    between atoms: _164  and  _165
REMARK   70  A    between atoms: _168  and  _170
REMARK   71  A    between atoms: _170  and  _171
REMARK   72  A    between atoms: _170  and  _173
REMARK   73  A    between atoms: _173  and  _174
REMARK   74  A    between atoms: _176  and  _178
REMARK   75  A    between atoms: _178  and  _179
REMARK   76  A    between atoms: _178  and  _181
REMARK   77  A    between atoms: _181  and  _182
REMARK   78  A    between atoms: _187  and  _188
REMARK   79  A    between atoms: _190  and  _192
REMARK   80  A    between atoms: _192  and  _193
REMARK   81  A    between atoms: _195  and  _197
REMARK   82  A    between atoms: _197  and  _198
REMARK   83  A    between atoms: _197  and  _200
REMARK   84  A    between atoms: _200  and  _201
REMARK   85  A    between atoms: _204  and  _206
REMARK   86  A    between atoms: _206  and  _207
REMARK   87  A    between atoms: _209  and  _211
REMARK   88  A    between atoms: _211  and  _212
REMARK   89  A    between atoms: _211  and  _214
REMARK   90  A    between atoms: _214  and  _215
REMARK   91  A    between atoms: _217  and  _219
REMARK   92  A    between atoms: _219  and  _220
REMARK   93  A    between atoms: _219  and  _222
REMARK   94  A    between atoms: _222  and  _223
REMARK   95  A    between atoms: _225  and  _227
REMARK   96  A    between atoms: _227  and  _228
REMARK   97  A    between atoms: _227  and  _230
REMARK   98  A    between atoms: _230  and  _231
REMARK   99  A    between atoms: _233  and  _235
REMARK  100  A    between atoms: _235  and  _236
REMARK  101  A    between atoms: _235  and  _238
REMARK  102  A    between atoms: _238  and  _239
REMARK  103  A    between atoms: _245  and  _247
REMARK  104  A    between atoms: _247  and  _248
REMARK  105  A    between atoms: _247  and  _250
REMARK  106  A    between atoms: _250  and  _251
REMARK  107  A    between atoms: _251  and  _252
REMARK  108  A    between atoms: _255  and  _257
REMARK  109  A    between atoms: _257  and  _258
REMARK  110  A    between atoms: _257  and  _260
REMARK  111  A    between atoms: _260  and  _261
REMARK  112  A    between atoms: _264  and  _266
REMARK  113  A    between atoms: _266  and  _267
REMARK  114  A    between atoms: _266  and  _269
REMARK  115  A    between atoms: _269  and  _270
REMARK  116  A    between atoms: _272  and  _274
REMARK  117  A    between atoms: _274  and  _275
REMARK  118  A    between atoms: _274  and  _277
REMARK  119  A    between atoms: _277  and  _278
REMARK  120  A    between atoms: _281  and  _283
REMARK  121  A    between atoms: _283  and  _284
REMARK  122  A    between atoms: _283  and  _286
REMARK  123  A    between atoms: _286  and  _287
REMARK  124  A    between atoms: _290  and  _292
REMARK  125  A    between atoms: _292  and  _293
REMARK  126  A    between atoms: _295  and  _297
REMARK  127  A    between atoms: _297  and  _298
REMARK  128  A    between atoms: _297  and  _300
REMARK  129  A    between atoms: _300  and  _301
REMARK  130  A    between atoms: _304  and  _306
REMARK  131  A    between atoms: _306  and  _307
REMARK  132  A    between atoms: _306  and  _309
REMARK  133  A    between atoms: _309  and  _310
REMARK  134  A    between atoms: _313  and  _315
REMARK  135  A    between atoms: _315  and  _316
REMARK  136  A    between atoms: _315  and  _318
REMARK  137  A    between atoms: _318  and  _319
REMARK  138  A    between atoms: _322  and  _324
REMARK  139  A    between atoms: _324  and  _325
REMARK  140  A    between atoms: _328  and  _330
REMARK  141  A    between atoms: _330  and  _331
REMARK  142  A    between atoms: _330  and  _333
REMARK  143  A    between atoms: _333  and  _334
REMARK  144  A    between atoms: _340  and  _342
REMARK  145  A    between atoms: _342  and  _343
REMARK  146  A    between atoms: _342  and  _345
REMARK  147  A    between atoms: _345  and  _346
REMARK  148  A    between atoms: _349  and  _351
REMARK  149  A    between atoms: _351  and  _352
REMARK  150  A    between atoms: _351  and  _354
REMARK  151  A    between atoms: _354  and  _355
REMARK  152  A    between atoms: _358  and  _360
REMARK  153  A    between atoms: _360  and  _361
REMARK  154  A    between atoms: _360  and  _363
REMARK  155  A    between atoms: _363  and  _364
REMARK  156  A    between atoms: _369  and  _371
REMARK  157  A    between atoms: _371  and  _372
REMARK  158  A    between atoms: _371  and  _374
REMARK  159  A    between atoms: _374  and  _375
REMARK  160  A    between atoms: _378  and  _380
REMARK  161  A    between atoms: _380  and  _381
REMARK  162  A    between atoms: _380  and  _383
REMARK  163  A    between atoms: _383  and  _384
REMARK  164  A    between atoms: _384  and  _385
REMARK  165  A    between atoms: _390  and  _392
REMARK  166  A    between atoms: _392  and  _393
REMARK  167  A    between atoms: _392  and  _395
REMARK  168  A    between atoms: _395  and  _396
REMARK  169  A    between atoms: _396  and  _397
REMARK  170  A    between atoms: _402  and  _404
REMARK  171  A    between atoms: _404  and  _405
REMARK  172  A    between atoms: _407  and  _409
REMARK  173  A    between atoms: _409  and  _410
REMARK  174  A    between atoms: _409  and  _412
REMARK  175  A    between atoms: _412  and  _413
REMARK  176  A    between atoms: _419  and  _421
REMARK  177  A    between atoms: _421  and  _422
REMARK  178  A    between atoms: _421  and  _424
REMARK  179  A    between atoms: _424  and  _425
REMARK  180  A    between atoms: _428  and  _430
REMARK  181  A    between atoms: _430  and  _431
REMARK  182  A    between atoms: _434  and  _436
REMARK  183  A    between atoms: _436  and  _437
REMARK  184  A    between atoms: _436  and  _439
REMARK  185  A    between atoms: _439  and  _440
REMARK  186  A    between atoms: _443  and  _445
REMARK  187  A    between atoms: _445  and  _446
REMARK  188  A    between atoms: _445  and  _448
REMARK  189  A    between atoms: _448  and  _449
REMARK  190  A    between atoms: _452  and  _454
REMARK  191  A    between atoms: _454  and  _455
REMARK  192  A    between atoms: _457  and  _459
REMARK  193  A    between atoms: _459  and  _460
REMARK  194  A    between atoms: _459  and  _462
REMARK  195  A    between atoms: _462  and  _463
REMARK  196  A    between atoms: _466  and  _468
REMARK  197  A    between atoms: _468  and  _469
REMARK  198  A    between atoms: _468  and  _471
REMARK  199  A    between atoms: _471  and  _472
REMARK  200  A    between atoms: _475  and  _477
REMARK  201  A    between atoms: _477  and  _478
REMARK  202  A    between atoms: _477  and  _480
REMARK  203  A    between atoms: _480  and  _481
REMARK  204  A    between atoms: _484  and  _486
REMARK  205  A    between atoms: _486  and  _487
REMARK  206  A    between atoms: _486  and  _489
REMARK  207  A    between atoms: _489  and  _490
REMARK  208  A    between atoms: _495  and  _496
REMARK  209  A    between atoms: _498  and  _500
REMARK  210  A    between atoms: _500  and  _501
REMARK  211  A    between atoms: _500  and  _503
REMARK  212  A    between atoms: _503  and  _504
REMARK  213  A    between atoms: _510  and  _512
REMARK  214  A    between atoms: _512  and  _513
REMARK  215  A    between atoms: _515  and  _517
REMARK  216  A    between atoms: _517  and  _518
REMARK  217  A    between atoms: _517  and  _520
REMARK  218  A    between atoms: _520  and  _521
REMARK  219  A    between atoms: _524  and  _526
REMARK  220  A    between atoms: _526  and  _527
REMARK  221  A    between atoms: _529  and  _531
REMARK  222  A    between atoms: _531  and  _532
REMARK  223  A    between atoms: _531  and  _534
REMARK  224  A    between atoms: _534  and  _535
REMARK  225  A    between atoms: _538  and  _540
REMARK  226  A    between atoms: _540  and  _541
REMARK  227  A    between atoms: _540  and  _543
REMARK  228  A    between atoms: _543  and  _544
REMARK  229  A    between atoms: _549  and  _551
REMARK  230  A    between atoms: _551  and  _552
REMARK  231  A    between atoms: _551  and  _554
REMARK  232  A    between atoms: _554  and  _555
REMARK  233  A    between atoms: _558  and  _560
REMARK  234  A    between atoms: _560  and  _561
REMARK  235  A    between atoms: _563  and  _565
REMARK  236  A    between atoms: _565  and  _566
REMARK  237  A    between atoms: _565  and  _568
REMARK  238  A    between atoms: _568  and  _569
REMARK                            x       y       z     vdW  Elec       q    Type
REMARK                         _______ _______ _______ _____ _____    ______ ____
ROOT
ATOM      1  CA  TYR A   4      -1.947   7.275  13.844  0.00  0.00    +0.153 C 
ENDROOT
BRANCH   1   4
ATOM      2  C   SER A   3      -1.610   7.960  16.157  0.00  0.00    +0.243 C 
ATOM      3  O   SER A   3      -0.549   8.514  15.901  0.00  0.00    -0.273 OA
ATOM      4  N   TYR A   4      -2.358   7.397  15.234  0.00  0.00    -0.297 N 
ATOM      5  H   TYR A   4      -3.287   7.021  15.511  0.00  0.00    +0.150 HD
BRANCH   2   6
ATOM      6  CA  SER A   3      -2.124   7.903  17.587  0.00  0.00    +0.178 C 
BRANCH   6   9
ATOM      7  C   ILE A   2      -1.161   6.360  19.209  0.00  0.00    +0.241 C 
ATOM      8  O   ILE A   2      -2.226   5.772  19.431  0.00  0.00    -0.273 OA
ATOM      9  N   SER A   3      -1.049   7.402  18.424  0.00  0.00    -0.295 N 
ATOM     10  H   SER A   3      -0.136   7.900  18.399  0.00  0.00    +0.150 HD
BRANCH   7  11
ATOM     11  CA  ILE A   2       0.128   5.966  19.905  0.00  0.00    +0.148 C 
BRANCH  11  14
ATOM     12  C   SER A   1       0.586   5.960  22.275  0.00  0.00    +0.241 C 
ATOM     13  O   SER A   1       1.453   6.825  22.218  0.00  0.00    -0.274 OA
ATOM     14  N   ILE A   2      -0.146   5.463  21.250  0.00  0.00    -0.297 N 
ATOM     15  H   ILE A   2      -0.881   4.745  21.415  0.00  0.00    +0.150 HD
BRANCH  12  16
ATOM     16  CA  SER A   1       0.281   5.374  23.642  0.00  0.00    +0.174 C 
BRANCH  16  17
ATOM     17  N   SER A   1       1.511   4.834  24.187  0.00  0.00    -0.236 NA
ATOM     18  H   SER A   1       2.419   5.151  23.791  0.00  0.00    +0.142 HD
ENDBRANCH  16  17
BRANCH  16  19
ATOM     19  CB  SER A   1      -0.288   6.439  24.570  0.00  0.00    +0.163 C 
BRANCH  19  20
ATOM     20  OG  SER A   1      -1.534   6.863  24.051  0.00  0.00    -0.380 OA
ATOM     21  H   SER A   1      -1.918   7.557  24.644  0.00  0.00    +0.211 HD
ENDBRANCH  19  20
ENDBRANCH  16  19
ENDBRANCH  12  16
ENDBRANCH  11  14
BRANCH  11  22
ATOM     22  CB  ILE A   2       0.921   4.904  19.138  0.00  0.00    +0.027 C 
ATOM     23  CG2 ILE A   2       0.110   3.648  18.900  0.00  0.00    +0.002 C 
BRANCH  22  24
ATOM     24  CG1 ILE A   2       1.526   5.410  17.816  0.00  0.00    +0.002 C 
ATOM     25  CD1 ILE A   2       2.670   4.614  17.263  0.00  0.00    +0.000 C 
ENDBRANCH  22  24
ENDBRANCH  11  22
ENDBRANCH   7  11
ENDBRANCH   6   9
BRANCH   6  26
ATOM     26  CB  SER A   3      -2.590   9.304  18.010  0.00  0.00    +0.166 C 
BRANCH  26  27
ATOM     27  OG  SER A   3      -2.976   9.314  19.364  0.00  0.00    -0.380 OA
ATOM     28  H   SER A   3      -3.272  10.225  19.615  0.00  0.00    +0.211 HD
ENDBRANCH  26  27
ENDBRANCH   6  26
ENDBRANCH   2   6
ENDBRANCH   1   4
BRANCH   1  29
ATOM     29  C   TYR A   4      -2.630   8.283  12.931  0.00  0.00    +0.241 C 
ATOM     30  O   TYR A   4      -3.595   8.917  13.334  0.00  0.00    -0.273 OA
ATOM     31  N   GLY A   5      -2.104   8.432  11.739  0.00  0.00    -0.295 N 
ATOM     32  H   GLY A   5      -1.335   7.792  11.454  0.00  0.00    +0.150 HD
BRANCH  31  33
ATOM     33  CA  GLY A   5      -2.542   9.447  10.797  0.00  0.00    +0.176 C 
BRANCH  33  34
ATOM     34  C   GLY A   5      -4.004   9.294  10.453  0.00  0.00    +0.243 C 
ATOM     35  N   ASP A   6      -4.587   8.095  10.474  0.00  0.00    -0.296 N 
ATOM     36  H   ASP A   6      -4.007   7.271  10.732  0.00  0.00    +0.150 HD
ATOM     37  O   GLY A   5      -4.651  10.302  10.141  0.00  0.00    -0.273 OA
BRANCH  35  38
ATOM     38  CA  ASP A   6      -5.997   7.876  10.154  0.00  0.00    +0.160 C 
BRANCH  38  39
ATOM     39  C   ASP A   6      -6.861   8.080  11.378  0.00  0.00    +0.241 C 
ATOM     40  N   GLY A   7      -6.309   8.529  12.507  0.00  0.00    -0.295 N 
ATOM     41  H   GLY A   7      -5.290   8.735  12.541  0.00  0.00    +0.150 HD
ATOM     42  O   ASP A   6      -8.047   7.834  11.260  0.00  0.00    -0.273 OA
BRANCH  40  43
ATOM     43  CA  GLY A   7      -7.133   8.731  13.695  0.00  0.00    +0.176 C 
BRANCH  43  44
ATOM     44  C   GLY A   7      -7.255   7.523  14.602  0.00  0.00    +0.243 C 
ATOM     45  O   GLY A   7      -7.822   7.620  15.693  0.00  0.00    -0.273 OA
ATOM     46  N   SER A   8      -6.703   6.390  14.187  0.00  0.00    -0.295 N 
ATOM     47  H   SER A   8      -6.244   6.360  13.254  0.00  0.00    +0.150 HD
BRANCH  46  48
ATOM     48  CA  SER A   8      -6.726   5.187  15.009  0.00  0.00    +0.178 C 
BRANCH  48  49
ATOM     49  C   SER A   8      -5.691   5.333  16.127  0.00  0.00    +0.243 C 
ATOM     50  N   SER A   9      -5.795   4.463  17.125  0.00  0.00    -0.296 N 
ATOM     51  H   SER A   9      -6.515   3.714  17.080  0.00  0.00    +0.150 HD
ATOM     52  O   SER A   8      -4.827   6.207  16.097  0.00  0.00    -0.273 OA
BRANCH  50  53
ATOM     53  CA  SER A   9      -4.911   4.546  18.284  0.00  0.00    +0.166 C 
BRANCH  53  54
ATOM     54  CB  SER A   9      -4.891   3.248  19.061  0.00  0.00    +0.229 C 
ATOM     55  OG  SER A   9      -5.737   2.375  18.903  0.00  0.00    -0.286 OA
ENDBRANCH  53  54
BRANCH  53  56
ATOM     56  C   SER A   9      -5.411   5.704  19.176  0.00  0.00    +0.165 C 
BRANCH  56  57
ATOM     57  O   SER A   9      -6.713   5.441  19.693  0.00  0.00    -0.380 OA
ATOM     58  H   SER A   9      -7.348   5.327  18.942  0.00  0.00    +0.211 HD
ENDBRANCH  56  57
ENDBRANCH  53  56
ENDBRANCH  50  53
ENDBRANCH  48  49
BRANCH  48  59
ATOM     59  CB  SER A   8      -6.491   3.953  14.173  0.00  0.00    +0.166 C 
BRANCH  59  60
ATOM     60  OG  SER A   8      -5.188   3.858  13.658  0.00  0.00    -0.380 OA
ATOM     61  H   SER A   8      -5.003   4.643  13.083  0.00  0.00    +0.211 HD
ENDBRANCH  59  60
ENDBRANCH  48  59
ENDBRANCH  46  48
ENDBRANCH  43  44
ENDBRANCH  40  43
ENDBRANCH  38  39
BRANCH  38  62
ATOM     62  CB  ASP A   6      -6.230   6.490   9.549  0.00  0.00    +0.143 C 
BRANCH  62  63
ATOM     63  CG  ASP A   6      -5.802   5.342  10.452  0.00  0.00    +0.367 C 
ATOM     64  OD2 ASP A   6      -5.460   5.589  11.642  0.00  0.00    -0.246 OA
ATOM     65  OD1 ASP A   6      -5.831   4.206   9.925  0.00  0.00    -0.246 OA
ENDBRANCH  62  63
ENDBRANCH  38  62
ENDBRANCH  35  38
ENDBRANCH  33  34
ENDBRANCH  31  33
ENDBRANCH   1  29
BRANCH   1  66
ATOM     66  CB  TYR A   4      -2.207   5.846  13.390  0.00  0.00    +0.055 C 
BRANCH  66  67
ATOM     67  CG  TYR A   4      -1.403   4.769  14.079  0.00  0.00    -0.020 A 
ATOM     68  CD2 TYR A   4      -1.963   3.897  15.012  0.00  0.00    -0.001 A 
ATOM     69  CE2 TYR A   4      -1.220   2.910  15.632  0.00  0.00    +0.036 A 
ATOM     70  CZ  TYR A   4       0.115   2.758  15.283  0.00  0.00    +0.134 A 
ATOM     71  CE1 TYR A   4       0.717   3.589  14.352  0.00  0.00    +0.036 A 
ATOM     72  CD1 TYR A   4      -0.060   4.573  13.771  0.00  0.00    -0.001 A 
BRANCH  70  73
ATOM     73  OH  TYR A   4       0.843   1.751  15.895  0.00  0.00    -0.506 OA
ATOM     74  HH  TYR A   4       1.604   2.148  16.389  0.00  0.00    +0.292 HD
ENDBRANCH  70  73
ENDBRANCH  66  67
ENDBRANCH   1  66
TORSDOF 33
REMARK  Name = ../refined-set-2016/3prs/3prs_pocket.pdb
REMARK  238 active torsions:
REMARK  status: ('A' for Active; 'I' for Inactive)
REMARK    1  A    between atoms: _1  and  _3
REMARK    2  A    between atoms: _3  and  _4
REMARK    3  A    between atoms: _3  and  _6
REMARK    4  A    between atoms: _6  and  _7
REMARK    5  A    between atoms: _10  and  _12
REMARK    6  A    between atoms: _12  and  _13
REMARK    7  A    between atoms: _12  and  _15
REMARK    8  A    between atoms: _15  and  _16
REMARK    9  A    between atoms: _19  and  _21
REMARK   10  A    between atoms: _21  and  _22
REMARK   11  A    between atoms: _21  and  _24
REMARK   12  A    between atoms: _24  and  _25
REMARK   13  A    between atoms: _28  and  _30
REMARK   14  A    between atoms: _30  and  _31
REMARK   15  A    between atoms: _30  and  _33
REMARK   16  A    between atoms: _33  and  _34
REMARK   17  A    between atoms: _37  and  _39
REMARK   18  A    between atoms: _39  and  _40
REMARK   19  A    between atoms: _39  and  _42
REMARK   20  A    between atoms: _42  and  _43
REMARK   21  A    between atoms: _46  and  _48
REMARK   22  A    between atoms: _48  and  _49
REMARK   23  A    between atoms: _52  and  _54
REMARK   24  A    between atoms: _54  and  _55
REMARK   25  A    between atoms: _54  and  _57
REMARK   26  A    between atoms: _57  and  _58
REMARK   27  A    between atoms: _63  and  _64
REMARK   28  A    between atoms: _66  and  _68
REMARK   29  A    between atoms: _68  and  _69
REMARK   30  A    between atoms: _68  and  _71
REMARK   31  A    between atoms: _71  and  _72
REMARK   32  A    between atoms: _75  and  _77
REMARK   33  A    between atoms: _77  and  _78
REMARK   34  A    between atoms: _77  and  _80
REMARK   35  A    between atoms: _80  and  _81
REMARK   36  A    between atoms: _87  and  _89
REMARK   37  A    between atoms: _89  and  _90
REMARK   38  A    between atoms: _89  and  _92
REMARK   39  A    between atoms: _92  and  _93
REMARK   40  A    between atoms: _96  and  _98
REMARK   41  A    between atoms: _98  and  _99
REMARK   42  A    between atoms: _98  and  _101
REMARK   43  A    between atoms: _101  and  _102
REMARK   44  A    between atoms: _105  and  _107
REMARK   45  A    between atoms: _107  and  _108
REMARK   46  A    between atoms: _110  and  _112
REMARK   47  A    between atoms: _112  and  _113
REMARK   48  A    between atoms: _112  and  _115
REMARK   49  A    between atoms: _115  and  _116
REMARK   50  A    between atoms: _118  and  _120
REMARK   51  A    between atoms: _120  and  _121
REMARK   52  A    between atoms: _120  and  _123
REMARK   53  A    between atoms: _123  and  _124
REMARK   54  A    between atoms: _126  and  _128
REMARK   55  A    between atoms: _128  and  _129
REMARK   56  A    between atoms: _128  and  _131
REMARK   57  A    between atoms: _131  and  _132
REMARK   58  A    between atoms: _135  and  _137
REMARK   59  A    between atoms: _137  and  _138
REMARK   60  A    between atoms: _137  and  _140
REMARK   61  A    between atoms: _140  and  _141
REMARK   62  A    between atoms: _151  and  _153
REMARK   63  A    between atoms: _153  and  _154
REMARK   64  A    between atoms: _153  and  _156
REMARK   65  A    between atoms: _156  and  _157
REMARK   66  A    between atoms: _159  and  _161
REMARK   67  A    between atoms: _161  and  _162
REMARK   68  A    between atoms: _161  and  _164
REMARK   69  A    between atoms: _164  and  _165
REMARK   70  A    between atoms: _168  and  _170
REMARK   71  A    between atoms: _170  and  _171
REMARK   72  A    between atoms: _170  and  _173
REMARK   73  A    between atoms: _173  and  _174
REMARK   74  A    between atoms: _176  and  _178
REMARK   75  A    between atoms: _178  and  _179
REMARK   76  A    between atoms: _178  and  _181
REMARK   77  A    between atoms: _181  and  _182
REMARK   78  A    between atoms: _187  and  _188
REMARK   79  A    between atoms: _190  and  _192
REMARK   80  A    between atoms: _192  and  _193
REMARK   81  A    between atoms: _195  and  _197
REMARK   82  A    between atoms: _197  and  _198
REMARK   83  A    between atoms: _197  and  _200
REMARK   84  A    between atoms: _200  and  _201
REMARK   85  A    between atoms: _204  and  _206
REMARK   86  A    between atoms: _206  and  _207
REMARK   87  A    between atoms: _209  and  _211
REMARK   88  A    between atoms: _211  and  _212
REMARK   89  A    between atoms: _211  and  _214
REMARK   90  A    between atoms: _214  and  _215
REMARK   91  A    between atoms: _217  and  _219
REMARK   92  A    between atoms: _219  and  _220
REMARK   93  A    between atoms: _219  and  _222
REMARK   94  A    between atoms: _222  and  _223
REMARK   95  A    between atoms: _225  and  _227
REMARK   96  A    between atoms: _227  and  _228
REMARK   97  A    between atoms: _227  and  _230
REMARK   98  A    between atoms: _230  and  _231
REMARK   99  A    between atoms: _233  and  _235
REMARK  100  A    between atoms: _235  and  _236
REMARK  101  A    between atoms: _235  and  _238
REMARK  102  A    between atoms: _238  and  _239
REMARK  103  A    between atoms: _245  and  _247
REMARK  104  A    between atoms: _247  and  _248
REMARK  105  A    between atoms: _247  and  _250
REMARK  106  A    between atoms: _250  and  _251
REMARK  107  A    between atoms: _251  and  _252
REMARK  108  A    between atoms: _255  and  _257
REMARK  109  A    between atoms: _257  and  _258
REMARK  110  A    between atoms: _257  and  _260
REMARK  111  A    between atoms: _260  and  _261
REMARK  112  A    between atoms: _264  and  _266
REMARK  113  A    between atoms: _266  and  _267
REMARK  114  A    between atoms: _266  and  _269
REMARK  115  A    between atoms: _269  and  _270
REMARK  116  A    between atoms: _272  and  _274
REMARK  117  A    between atoms: _274  and  _275
REMARK  118  A    between atoms: _274  and  _277
REMARK  119  A    between atoms: _277  and  _278
REMARK  120  A    between atoms: _281  and  _283
REMARK  121  A    between atoms: _283  and  _284
REMARK  122  A    between atoms: _283  and  _286
REMARK  123  A    between atoms: _286  and  _287
REMARK  124  A    between atoms: _290  and  _292
REMARK  125  A    between atoms: _292  and  _293
REMARK  126  A    between atoms: _295  and  _297
REMARK  127  A    between atoms: _297  and  _298
REMARK  128  A    between atoms: _297  and  _300
REMARK  129  A    between atoms: _300  and  _301
REMARK  130  A    between atoms: _304  and  _306
REMARK  131  A    between atoms: _306  and  _307
REMARK  132  A    between atoms: _306  and  _309
REMARK  133  A    between atoms: _309  and  _310
REMARK  134  A    between atoms: _313  and  _315
REMARK  135  A    between atoms: _315  and  _316
REMARK  136  A    between atoms: _315  and  _318
REMARK  137  A    between atoms: _318  and  _319
REMARK  138  A    between atoms: _322  and  _324
REMARK  139  A    between atoms: _324  and  _325
REMARK  140  A    between atoms: _328  and  _330
REMARK  141  A    between atoms: _330  and  _331
REMARK  142  A    between atoms: _330  and  _333
REMARK  143  A    between atoms: _333  and  _334
REMARK  144  A    between atoms: _340  and  _342
REMARK  145  A    between atoms: _342  and  _343
REMARK  146  A    between atoms: _342  and  _345
REMARK  147  A    between atoms: _345  and  _346
REMARK  148  A    between atoms: _349  and  _351
REMARK  149  A    between atoms: _351  and  _352
REMARK  150  A    between atoms: _351  and  _354
REMARK  151  A    between atoms: _354  and  _355
REMARK  152  A    between atoms: _358  and  _360
REMARK  153  A    between atoms: _360  and  _361
REMARK  154  A    between atoms: _360  and  _363
REMARK  155  A    between atoms: _363  and  _364
REMARK  156  A    between atoms: _369  and  _371
REMARK  157  A    between atoms: _371  and  _372
REMARK  158  A    between atoms: _371  and  _374
REMARK  159  A    between atoms: _374  and  _375
REMARK  160  A    between atoms: _378  and  _380
REMARK  161  A    between atoms: _380  and  _381
REMARK  162  A    between atoms: _380  and  _383
REMARK  163  A    between atoms: _383  and  _384
REMARK  164  A    between atoms: _384  and  _385
REMARK  165  A    between atoms: _390  and  _392
REMARK  166  A    between atoms: _392  and  _393
REMARK  167  A    between atoms: _392  and  _395
REMARK  168  A    between atoms: _395  and  _396
REMARK  169  A    between atoms: _396  and  _397
REMARK  170  A    between atoms: _402  and  _404
REMARK  171  A    between atoms: _404  and  _405
REMARK  172  A    between atoms: _407  and  _409
REMARK  173  A    between atoms: _409  and  _410
REMARK  174  A    between atoms: _409  and  _412
REMARK  175  A    between atoms: _412  and  _413
REMARK  176  A    between atoms: _419  and  _421
REMARK  177  A    between atoms: _421  and  _422
REMARK  178  A    between atoms: _421  and  _424
REMARK  179  A    between atoms: _424  and  _425
REMARK  180  A    between atoms: _428  and  _430
REMARK  181  A    between atoms: _430  and  _431
REMARK  182  A    between atoms: _434  and  _436
REMARK  183  A    between atoms: _436  and  _437
REMARK  184  A    between atoms: _436  and  _439
REMARK  185  A    between atoms: _439  and  _440
REMARK  186  A    between atoms: _443  and  _445
REMARK  187  A    between atoms: _445  and  _446
REMARK  188  A    between atoms: _445  and  _448
REMARK  189  A    between atoms: _448  and  _449
REMARK  190  A    between atoms: _452  and  _454
REMARK  191  A    between atoms: _454  and  _455
REMARK  192  A    between atoms: _457  and  _459
REMARK  193  A    between atoms: _459  and  _460
REMARK  194  A    between atoms: _459  and  _462
REMARK  195  A    between atoms: _462  and  _463
REMARK  196  A    between atoms: _466  and  _468
REMARK  197  A    between atoms: _468  and  _469
REMARK  198  A    between atoms: _468  and  _471
REMARK  199  A    between atoms: _471  and  _472
REMARK  200  A    between atoms: _475  and  _477
REMARK  201  A    between atoms: _477  and  _478
REMARK  202  A    between atoms: _477  and  _480
REMARK  203  A    between atoms: _480  and  _481
REMARK  204  A    between atoms: _484  and  _486
REMARK  205  A    between atoms: _486  and  _487
REMARK  206  A    between atoms: _486  and  _489
REMARK  207  A    between atoms: _489  and  _490
REMARK  208  A    between atoms: _495  and  _496
REMARK  209  A    between atoms: _498  and  _500
REMARK  210  A    between atoms: _500  and  _501
REMARK  211  A    between atoms: _500  and  _503
REMARK  212  A    between atoms: _503  and  _504
REMARK  213  A    between atoms: _510  and  _512
REMARK  214  A    between atoms: _512  and  _513
REMARK  215  A    between atoms: _515  and  _517
REMARK  216  A    between atoms: _517  and  _518
REMARK  217  A    between atoms: _517  and  _520
REMARK  218  A    between atoms: _520  and  _521
REMARK  219  A    between atoms: _524  and  _526
REMARK  220  A    between atoms: _526  and  _527
REMARK  221  A    between atoms: _529  and  _531
REMARK  222  A    between atoms: _531  and  _532
REMARK  223  A    between atoms: _531  and  _534
REMARK  224  A    between atoms: _534  and  _535
REMARK  225  A    between atoms: _538  and  _540
REMARK  226  A    between atoms: _540  and  _541
REMARK  227  A    between atoms: _540  and  _543
REMARK  228  A    between atoms: _543  and  _544
REMARK  229  A    between atoms: _549  and  _551
REMARK  230  A    between atoms: _551  and  _552
REMARK  231  A    between atoms: _551  and  _554
REMARK  232  A    between atoms: _554  and  _555
REMARK  233  A    between atoms: _558  and  _560
REMARK  234  A    between atoms: _560  and  _561
REMARK  235  A    between atoms: _563  and  _565
REMARK  236  A    between atoms: _565  and  _566
REMARK  237  A    between atoms: _565  and  _568
REMARK  238  A    between atoms: _568  and  _569
REMARK                            x       y       z     vdW  Elec       q    Type
REMARK                         _______ _______ _______ _____ _____    ______ ____
ROOT
ATOM      1  C   SER A   1      -9.558  -1.015  13.537  0.00  0.00    +0.241 C 
ATOM      2  N   PHE A   2      -8.835  -1.084  14.669  0.00  0.00    -0.298 N 
ATOM      3  H   PHE A   2      -8.844  -0.294  15.345  0.00  0.00    +0.150 HD
ATOM      4  O   SER A   1      -9.576  -1.925  12.693  0.00  0.00    -0.274 OA
ENDROOT
BRANCH   1   5
ATOM      5  CA  SER A   1     -10.438   0.211  13.308  0.00  0.00    +0.174 C 
BRANCH   5   6
ATOM      6  N   SER A   1     -10.943   0.762  14.573  0.00  0.00    -0.236 NA
ATOM      7  H   SER A   1     -10.681   1.713  14.902  0.00  0.00    +0.142 HD
ENDBRANCH   5   6
BRANCH   5   8
ATOM      8  CB  SER A   1      -9.761   1.350  12.549  0.00  0.00    +0.163 C 
BRANCH   8   9
ATOM      9  OG  SER A   1      -8.679   1.899  13.265  0.00  0.00    -0.380 OA
ATOM     10  H   SER A   1      -9.004   2.256  14.129  0.00  0.00    +0.211 HD
ENDBRANCH   8   9
ENDBRANCH   5   8
ENDBRANCH   1   5
BRANCH   2  11
ATOM     11  CA  PHE A   2      -8.032  -2.284  14.943  0.00  0.00    +0.141 C 
BRANCH  11  12
ATOM     12  C   PHE A   2      -8.939  -3.439  15.310  0.00  0.00    +0.227 C 
ATOM     13  O   PHE A   2      -8.780  -4.563  14.831  0.00  0.00    -0.286 OA
ENDBRANCH  11  12
BRANCH  11  14
ATOM     14  CB  PHE A   2      -6.976  -1.970  16.007  0.00  0.00    +0.054 C 
BRANCH  14  15
ATOM     15  CG  PHE A   2      -5.897  -1.047  15.467  0.00  0.00    -0.020 A 
ATOM     16  CD2 PHE A   2      -5.681   0.227  15.970  0.00  0.00    -0.004 A 
ATOM     17  CE2 PHE A   2      -4.726   1.086  15.487  0.00  0.00    -0.000 A 
ATOM     18  CZ  PHE A   2      -3.938   0.661  14.431  0.00  0.00    -0.000 A 
ATOM     19  CE1 PHE A   2      -4.139  -0.607  13.911  0.00  0.00    -0.000 A 
ATOM     20  CD1 PHE A   2      -5.105  -1.457  14.423  0.00  0.00    -0.004 A 
ENDBRANCH  14  15
ENDBRANCH  11  14
ENDBRANCH   2  11
TORSDOF 8
REMARK  Name = ../refined-set-2016/3prs/3prs_pocket.pdb
REMARK  238 active torsions:
REMARK  status: ('A' for Active; 'I' for Inactive)
REMARK    1  A    between atoms: _1  and  _3
REMARK    2  A    between atoms: _3  and  _4
REMARK    3  A    between atoms: _3  and  _6
REMARK    4  A    between atoms: _6  and  _7
REMARK    5  A    between atoms: _10  and  _12
REMARK    6  A    between atoms: _12  and  _13
REMARK    7  A    between atoms: _12  and  _15
REMARK    8  A    between atoms: _15  and  _16
REMARK    9  A    between atoms: _19  and  _21
REMARK   10  A    between atoms: _21  and  _22
REMARK   11  A    between atoms: _21  and  _24
REMARK   12  A    between atoms: _24  and  _25
REMARK   13  A    between atoms: _28  and  _30
REMARK   14  A    between atoms: _30  and  _31
REMARK   15  A    between atoms: _30  and  _33
REMARK   16  A    between atoms: _33  and  _34
REMARK   17  A    between atoms: _37  and  _39
REMARK   18  A    between atoms: _39  and  _40
REMARK   19  A    between atoms: _39  and  _42
REMARK   20  A    between atoms: _42  and  _43
REMARK   21  A    between atoms: _46  and  _48
REMARK   22  A    between atoms: _48  and  _49
REMARK   23  A    between atoms: _52  and  _54
REMARK   24  A    between atoms: _54  and  _55
REMARK   25  A    between atoms: _54  and  _57
REMARK   26  A    between atoms: _57  and  _58
REMARK   27  A    between atoms: _63  and  _64
REMARK   28  A    between atoms: _66  and  _68
REMARK   29  A    between atoms: _68  and  _69
REMARK   30  A    between atoms: _68  and  _71
REMARK   31  A    between atoms: _71  and  _72
REMARK   32  A    between atoms: _75  and  _77
REMARK   33  A    between atoms: _77  and  _78
REMARK   34  A    between atoms: _77  and  _80
REMARK   35  A    between atoms: _80  and  _81
REMARK   36  A    between atoms: _87  and  _89
REMARK   37  A    between atoms: _89  and  _90
REMARK   38  A    between atoms: _89  and  _92
REMARK   39  A    between atoms: _92  and  _93
REMARK   40  A    between atoms: _96  and  _98
REMARK   41  A    between atoms: _98  and  _99
REMARK   42  A    between atoms: _98  and  _101
REMARK   43  A    between atoms: _101  and  _102
REMARK   44  A    between atoms: _105  and  _107
REMARK   45  A    between atoms: _107  and  _108
REMARK   46  A    between atoms: _110  and  _112
REMARK   47  A    between atoms: _112  and  _113
REMARK   48  A    between atoms: _112  and  _115
REMARK   49  A    between atoms: _115  and  _116
REMARK   50  A    between atoms: _118  and  _120
REMARK   51  A    between atoms: _120  and  _121
REMARK   52  A    between atoms: _120  and  _123
REMARK   53  A    between atoms: _123  and  _124
REMARK   54  A    between atoms: _126  and  _128
REMARK   55  A    between atoms: _128  and  _129
REMARK   56  A    between atoms: _128  and  _131
REMARK   57  A    between atoms: _131  and  _132
REMARK   58  A    between atoms: _135  and  _137
REMARK   59  A    between atoms: _137  and  _138
REMARK   60  A    between atoms: _137  and  _140
REMARK   61  A    between atoms: _140  and  _141
REMARK   62  A    between atoms: _151  and  _153
REMARK   63  A    between atoms: _153  and  _154
REMARK   64  A    between atoms: _153  and  _156
REMARK   65  A    between atoms: _156  and  _157
REMARK   66  A    between atoms: _159  and  _161
REMARK   67  A    between atoms: _161  and  _162
REMARK   68  A    between atoms: _161  and  _164
REMARK   69  A    between atoms: _164  and  _165
REMARK   70  A    between atoms: _168  and  _170
REMARK   71  A    between atoms: _170  and  _171
REMARK   72  A    between atoms: _170  and  _173
REMARK   73  A    between atoms: _173  and  _174
REMARK   74  A    between atoms: _176  and  _178
REMARK   75  A    between atoms: _178  and  _179
REMARK   76  A    between atoms: _178  and  _181
REMARK   77  A    between atoms: _181  and  _182
REMARK   78  A    between atoms: _187  and  _188
REMARK   79  A    between atoms: _190  and  _192
REMARK   80  A    between atoms: _192  and  _193
REMARK   81  A    between atoms: _195  and  _197
REMARK   82  A    between atoms: _197  and  _198
REMARK   83  A    between atoms: _197  and  _200
REMARK   84  A    between atoms: _200  and  _201
REMARK   85  A    between atoms: _204  and  _206
REMARK   86  A    between atoms: _206  and  _207
REMARK   87  A    between atoms: _209  and  _211
REMARK   88  A    between atoms: _211  and  _212
REMARK   89  A    between atoms: _211  and  _214
REMARK   90  A    between atoms: _214  and  _215
REMARK   91  A    between atoms: _217  and  _219
REMARK   92  A    between atoms: _219  and  _220
REMARK   93  A    between atoms: _219  and  _222
REMARK   94  A    between atoms: _222  and  _223
REMARK   95  A    between atoms: _225  and  _227
REMARK   96  A    between atoms: _227  and  _228
REMARK   97  A    between atoms: _227  and  _230
REMARK   98  A    between atoms: _230  and  _231
REMARK   99  A    between atoms: _233  and  _235
REMARK  100  A    between atoms: _235  and  _236
REMARK  101  A    between atoms: _235  and  _238
REMARK  102  A    between atoms: _238  and  _239
REMARK  103  A    between atoms: _245  and  _247
REMARK  104  A    between atoms: _247  and  _248
REMARK  105  A    between atoms: _247  and  _250
REMARK  106  A    between atoms: _250  and  _251
REMARK  107  A    between atoms: _251  and  _252
REMARK  108  A    between atoms: _255  and  _257
REMARK  109  A    between atoms: _257  and  _258
REMARK  110  A    between atoms: _257  and  _260
REMARK  111  A    between atoms: _260  and  _261
REMARK  112  A    between atoms: _264  and  _266
REMARK  113  A    between atoms: _266  and  _267
REMARK  114  A    between atoms: _266  and  _269
REMARK  115  A    between atoms: _269  and  _270
REMARK  116  A    between atoms: _272  and  _274
REMARK  117  A    between atoms: _274  and  _275
REMARK  118  A    between atoms: _274  and  _277
REMARK  119  A    between atoms: _277  and  _278
REMARK  120  A    between atoms: _281  and  _283
REMARK  121  A    between atoms: _283  and  _284
REMARK  122  A    between atoms: _283  and  _286
REMARK  123  A    between atoms: _286  and  _287
REMARK  124  A    between atoms: _290  and  _292
REMARK  125  A    between atoms: _292  and  _293
REMARK  126  A    between atoms: _295  and  _297
REMARK  127  A    between atoms: _297  and  _298
REMARK  128  A    between atoms: _297  and  _300
REMARK  129  A    between atoms: _300  and  _301
REMARK  130  A    between atoms: _304  and  _306
REMARK  131  A    between atoms: _306  and  _307
REMARK  132  A    between atoms: _306  and  _309
REMARK  133  A    between atoms: _309  and  _310
REMARK  134  A    between atoms: _313  and  _315
REMARK  135  A    between atoms: _315  and  _316
REMARK  136  A    between atoms: _315  and  _318
REMARK  137  A    between atoms: _318  and  _319
REMARK  138  A    between atoms: _322  and  _324
REMARK  139  A    between atoms: _324  and  _325
REMARK  140  A    between atoms: _328  and  _330
REMARK  141  A    between atoms: _330  and  _331
REMARK  142  A    between atoms: _330  and  _333
REMARK  143  A    between atoms: _333  and  _334
REMARK  144  A    between atoms: _340  and  _342
REMARK  145  A    between atoms: _342  and  _343
REMARK  146  A    between atoms: _342  and  _345
REMARK  147  A    between atoms: _345  and  _346
REMARK  148  A    between atoms: _349  and  _351
REMARK  149  A    between atoms: _351  and  _352
REMARK  150  A    between atoms: _351  and  _354
REMARK  151  A    between atoms: _354  and  _355
REMARK  152  A    between atoms: _358  and  _360
REMARK  153  A    between atoms: _360  and  _361
REMARK  154  A    between atoms: _360  and  _363
REMARK  155  A    between atoms: _363  and  _364
REMARK  156  A    between atoms: _369  and  _371
REMARK  157  A    between atoms: _371  and  _372
REMARK  158  A    between atoms: _371  and  _374
REMARK  159  A    between atoms: _374  and  _375
REMARK  160  A    between atoms: _378  and  _380
REMARK  161  A    between atoms: _380  and  _381
REMARK  162  A    between atoms: _380  and  _383
REMARK  163  A    between atoms: _383  and  _384
REMARK  164  A    between atoms: _384  and  _385
REMARK  165  A    between atoms: _390  and  _392
REMARK  166  A    between atoms: _392  and  _393
REMARK  167  A    between atoms: _392  and  _395
REMARK  168  A    between atoms: _395  and  _396
REMARK  169  A    between atoms: _396  and  _397
REMARK  170  A    between atoms: _402  and  _404
REMARK  171  A    between atoms: _404  and  _405
REMARK  172  A    between atoms: _407  and  _409
REMARK  173  A    between atoms: _409  and  _410
REMARK  174  A    between atoms: _409  and  _412
REMARK  175  A    between atoms: _412  and  _413
REMARK  176  A    between atoms: _419  and  _421
REMARK  177  A    between atoms: _421  and  _422
REMARK  178  A    between atoms: _421  and  _424
REMARK  179  A    between atoms: _424  and  _425
REMARK  180  A    between atoms: _428  and  _430
REMARK  181  A    between atoms: _430  and  _431
REMARK  182  A    between atoms: _434  and  _436
REMARK  183  A    between atoms: _436  and  _437
REMARK  184  A    between atoms: _436  and  _439
REMARK  185  A    between atoms: _439  and  _440
REMARK  186  A    between atoms: _443  and  _445
REMARK  187  A    between atoms: _445  and  _446
REMARK  188  A    between atoms: _445  and  _448
REMARK  189  A    between atoms: _448  and  _449
REMARK  190  A    between atoms: _452  and  _454
REMARK  191  A    between atoms: _454  and  _455
REMARK  192  A    between atoms: _457  and  _459
REMARK  193  A    between atoms: _459  and  _460
REMARK  194  A    between atoms: _459  and  _462
REMARK  195  A    between atoms: _462  and  _463
REMARK  196  A    between atoms: _466  and  _468
REMARK  197  A    between atoms: _468  and  _469
REMARK  198  A    between atoms: _468  and  _471
REMARK  199  A    between atoms: _471  and  _472
REMARK  200  A    between atoms: _475  and  _477
REMARK  201  A    between atoms: _477  and  _478
REMARK  202  A    between atoms: _477  and  _480
REMARK  203  A    between atoms: _480  and  _481
REMARK  204  A    between atoms: _484  and  _486
REMARK  205  A    between atoms: _486  and  _487
REMARK  206  A    between atoms: _486  and  _489
REMARK  207  A    between atoms: _489  and  _490
REMARK  208  A    between atoms: _495  and  _496
REMARK  209  A    between atoms: _498  and  _500
REMARK  210  A    between atoms: _500  and  _501
REMARK  211  A    between atoms: _500  and  _503
REMARK  212  A    between atoms: _503  and  _504
REMARK  213  A    between atoms: _510  and  _512
REMARK  214  A    between atoms: _512  and  _513
REMARK  215  A    between atoms: _515  and  _517
REMARK  216  A    between atoms: _517  and  _518
REMARK  217  A    between atoms: _517  and  _520
REMARK  218  A    between atoms: _520  and  _521
REMARK  219  A    between atoms: _524  and  _526
REMARK  220  A    between atoms: _526  and  _527
REMARK  221  A    between atoms: _529  and  _531
REMARK  222  A    between atoms: _531  and  _532
REMARK  223  A    between atoms: _531  and  _534
REMARK  224  A    between atoms: _534  and  _535
REMARK  225  A    between atoms: _538  and  _540
REMARK  226  A    between atoms: _540  and  _541
REMARK  227  A    between atoms: _540  and  _543
REMARK  228  A    between atoms: _543  and  _544
REMARK  229  A    between atoms: _549  and  _551
REMARK  230  A    between atoms: _551  and  _552
REMARK  231  A    between atoms: _551  and  _554
REMARK  232  A    between atoms: _554  and  _555
REMARK  233  A    between atoms: _558  and  _560
REMARK  234  A    between atoms: _560  and  _561
REMARK  235  A    between atoms: _563  and  _565
REMARK  236  A    between atoms: _565  and  _566
REMARK  237  A    between atoms: _565  and  _568
REMARK  238  A    between atoms: _568  and  _569
REMARK                            x       y       z     vdW  Elec       q    Type
REMARK                         _______ _______ _______ _____ _____    ______ ____
ROOT
ATOM      1  CA  SER A   3      -9.438  -9.581  12.685  0.00  0.00    +0.178 C 
ENDROOT
BRANCH   1   2
ATOM      2  C   SER A   3      -8.125 -10.151  12.199  0.00  0.00    +0.243 C 
ATOM      3  O   SER A   3      -7.614 -11.043  12.887  0.00  0.00    -0.273 OA
ATOM      4  N   THR A   4      -7.629  -9.694  11.040  0.00  0.00    -0.295 N 
ATOM      5  H   THR A   4      -8.097  -8.901  10.556  0.00  0.00    +0.150 HD
BRANCH   4   6
ATOM      6  CA  THR A   4      -6.433 -10.302  10.448  0.00  0.00    +0.176 C 
BRANCH   6   7
ATOM      7  C   THR A   4      -5.123  -9.722  10.949  0.00  0.00    +0.243 C 
ATOM      8  N   ILE A   5      -5.169  -8.557  11.584  0.00  0.00    -0.298 N 
ATOM      9  H   ILE A   5      -6.093  -8.115  11.762  0.00  0.00    +0.150 HD
ATOM     10  O   THR A   4      -4.086 -10.304  10.666  0.00  0.00    -0.273 OA
BRANCH   8  11
ATOM     11  CA  ILE A   5      -3.959  -7.880  12.039  0.00  0.00    +0.137 C 
BRANCH  11  12
ATOM     12  CB  ILE A   5      -3.912  -6.417  11.545  0.00  0.00    +0.026 C 
ATOM     13  CG2 ILE A   5      -2.808  -5.659  12.274  0.00  0.00    +0.002 C 
BRANCH  12  14
ATOM     14  CG1 ILE A   5      -3.752  -6.355  10.020  0.00  0.00    +0.002 C 
ATOM     15  CD1 ILE A   5      -3.824  -4.952   9.475  0.00  0.00    +0.000 C 
ENDBRANCH  12  14
ENDBRANCH  11  12
BRANCH  11  16
ATOM     16  C   ILE A   5      -3.875  -7.985  13.563  0.00  0.00    +0.227 C 
ATOM     17  O   ILE A   5      -4.737  -7.449  14.269  0.00  0.00    -0.286 OA
ENDBRANCH  11  16
ENDBRANCH   8  11
ENDBRANCH   6   7
BRANCH   6  18
ATOM     18  CB  THR A   4      -6.416 -10.203   8.898  0.00  0.00    +0.137 C 
ATOM     19  CG2 THR A   4      -7.769 -10.707   8.415  0.00  0.00    +0.034 C 
BRANCH  18  20
ATOM     20  OG1 THR A   4      -6.234  -8.862   8.457  0.00  0.00    -0.382 OA
ATOM     21  HG1 THR A   4      -6.975  -8.301   8.797  0.00  0.00    +0.210 HD
ENDBRANCH  18  20
ENDBRANCH   6  18
ENDBRANCH   4   6
ENDBRANCH   1   2
BRANCH   1  24
ATOM     22  C   ASP A   2      -9.157  -7.243  12.186  0.00  0.00    +0.241 C 
ATOM     23  O   ASP A   2      -8.144  -7.154  12.886  0.00  0.00    -0.273 OA
ATOM     24  N   SER A   3      -9.798  -8.372  11.975  0.00  0.00    -0.295 N 
ATOM     25  H   SER A   3     -10.577  -8.396  11.286  0.00  0.00    +0.150 HD
BRANCH  22  26
ATOM     26  CA  ASP A   2      -9.726  -6.017  11.494  0.00  0.00    +0.160 C 
BRANCH  26  28
ATOM     27  C   GLU A   1     -11.850  -5.233  12.229  0.00  0.00    +0.238 C 
ATOM     28  N   ASP A   2     -10.531  -5.233  12.391  0.00  0.00    -0.297 N 
ATOM     29  H   ASP A   2     -10.090  -4.677  13.151  0.00  0.00    +0.150 HD
ATOM     30  O   GLU A   1     -12.385  -5.834  11.295  0.00  0.00    -0.274 OA
BRANCH  27  31
ATOM     31  CA  GLU A   1     -12.674  -4.490  13.269  0.00  0.00    +0.145 C 
BRANCH  31  32
ATOM     32  N   GLU A   1     -11.890  -4.049  14.426  0.00  0.00    -0.238 NA
ATOM     33  H   GLU A   1     -11.637  -3.044  14.515  0.00  0.00    +0.142 HD
ENDBRANCH  31  32
BRANCH  31  34
ATOM     34  CB  GLU A   1     -13.371  -3.289  12.611  0.00  0.00    +0.038 C 
BRANCH  34  35
ATOM     35  CG  GLU A   1     -14.448  -2.669  13.515  0.00  0.00    +0.116 C 
BRANCH  35  36
ATOM     36  CD  GLU A   1     -14.873  -1.283  13.102  0.00  0.00    +0.365 C 
ATOM     37  OE2 GLU A   1     -15.749  -0.714  13.789  0.00  0.00    -0.246 OA
ATOM     38  OE1 GLU A   1     -14.321  -0.768  12.100  0.00  0.00    -0.246 OA
ENDBRANCH  35  36
ENDBRANCH  34  35
ENDBRANCH  31  34
ENDBRANCH  27  31
ENDBRANCH  26  28
BRANCH  26  39
ATOM     39  CB  ASP A   2      -8.581  -5.153  10.965  0.00  0.00    +0.143 C 
BRANCH  39  40
ATOM     40  CG  ASP A   2      -7.877  -5.876   9.823  0.00  0.00    +0.367 C 
ATOM     41  OD2 ASP A   2      -8.085  -7.079   9.611  0.00  0.00    -0.246 OA
ATOM     42  OD1 ASP A   2      -7.093  -5.214   9.117  0.00  0.00    -0.246 OA
ENDBRANCH  39  40
ENDBRANCH  26  39
ENDBRANCH  22  26
ENDBRANCH   1  24
BRANCH   1  43
ATOM     43  CB  SER A   3     -10.501 -10.671  12.529  0.00  0.00    +0.166 C 
BRANCH  43  44
ATOM     44  OG  SER A   3     -10.631 -11.057  11.158  0.00  0.00    -0.380 OA
ATOM     45  H   SER A   3     -10.897 -10.270  10.619  0.00  0.00    +0.211 HD
ENDBRANCH  43  44
ENDBRANCH   1  43
TORSDOF 21
REMARK  Name = ../refined-set-2016/3prs/3prs_pocket.pdb
REMARK  238 active torsions:
REMARK  status: ('A' for Active; 'I' for Inactive)
REMARK    1  A    between atoms: _1  and  _3
REMARK    2  A    between atoms: _3  and  _4
REMARK    3  A    between atoms: _3  and  _6
REMARK    4  A    between atoms: _6  and  _7
REMARK    5  A    between atoms: _10  and  _12
REMARK    6  A    between atoms: _12  and  _13
REMARK    7  A    between atoms: _12  and  _15
REMARK    8  A    between atoms: _15  and  _16
REMARK    9  A    between atoms: _19  and  _21
REMARK   10  A    between atoms: _21  and  _22
REMARK   11  A    between atoms: _21  and  _24
REMARK   12  A    between atoms: _24  and  _25
REMARK   13  A    between atoms: _28  and  _30
REMARK   14  A    between atoms: _30  and  _31
REMARK   15  A    between atoms: _30  and  _33
REMARK   16  A    between atoms: _33  and  _34
REMARK   17  A    between atoms: _37  and  _39
REMARK   18  A    between atoms: _39  and  _40
REMARK   19  A    between atoms: _39  and  _42
REMARK   20  A    between atoms: _42  and  _43
REMARK   21  A    between atoms: _46  and  _48
REMARK   22  A    between atoms: _48  and  _49
REMARK   23  A    between atoms: _52  and  _54
REMARK   24  A    between atoms: _54  and  _55
REMARK   25  A    between atoms: _54  and  _57
REMARK   26  A    between atoms: _57  and  _58
REMARK   27  A    between atoms: _63  and  _64
REMARK   28  A    between atoms: _66  and  _68
REMARK   29  A    between atoms: _68  and  _69
REMARK   30  A    between atoms: _68  and  _71
REMARK   31  A    between atoms: _71  and  _72
REMARK   32  A    between atoms: _75  and  _77
REMARK   33  A    between atoms: _77  and  _78
REMARK   34  A    between atoms: _77  and  _80
REMARK   35  A    between atoms: _80  and  _81
REMARK   36  A    between atoms: _87  and  _89
REMARK   37  A    between atoms: _89  and  _90
REMARK   38  A    between atoms: _89  and  _92
REMARK   39  A    between atoms: _92  and  _93
REMARK   40  A    between atoms: _96  and  _98
REMARK   41  A    between atoms: _98  and  _99
REMARK   42  A    between atoms: _98  and  _101
REMARK   43  A    between atoms: _101  and  _102
REMARK   44  A    between atoms: _105  and  _107
REMARK   45  A    between atoms: _107  and  _108
REMARK   46  A    between atoms: _110  and  _112
REMARK   47  A    between atoms: _112  and  _113
REMARK   48  A    between atoms: _112  and  _115
REMARK   49  A    between atoms: _115  and  _116
REMARK   50  A    between atoms: _118  and  _120
REMARK   51  A    between atoms: _120  and  _121
REMARK   52  A    between atoms: _120  and  _123
REMARK   53  A    between atoms: _123  and  _124
REMARK   54  A    between atoms: _126  and  _128
REMARK   55  A    between atoms: _128  and  _129
REMARK   56  A    between atoms: _128  and  _131
REMARK   57  A    between atoms: _131  and  _132
REMARK   58  A    between atoms: _135  and  _137
REMARK   59  A    between atoms: _137  and  _138
REMARK   60  A    between atoms: _137  and  _140
REMARK   61  A    between atoms: _140  and  _141
REMARK   62  A    between atoms: _151  and  _153
REMARK   63  A    between atoms: _153  and  _154
REMARK   64  A    between atoms: _153  and  _156
REMARK   65  A    between atoms: _156  and  _157
REMARK   66  A    between atoms: _159  and  _161
REMARK   67  A    between atoms: _161  and  _162
REMARK   68  A    between atoms: _161  and  _164
REMARK   69  A    between atoms: _164  and  _165
REMARK   70  A    between atoms: _168  and  _170
REMARK   71  A    between atoms: _170  and  _171
REMARK   72  A    between atoms: _170  and  _173
REMARK   73  A    between atoms: _173  and  _174
REMARK   74  A    between atoms: _176  and  _178
REMARK   75  A    between atoms: _178  and  _179
REMARK   76  A    between atoms: _178  and  _181
REMARK   77  A    between atoms: _181  and  _182
REMARK   78  A    between atoms: _187  and  _188
REMARK   79  A    between atoms: _190  and  _192
REMARK   80  A    between atoms: _192  and  _193
REMARK   81  A    between atoms: _195  and  _197
REMARK   82  A    between atoms: _197  and  _198
REMARK   83  A    between atoms: _197  and  _200
REMARK   84  A    between atoms: _200  and  _201
REMARK   85  A    between atoms: _204  and  _206
REMARK   86  A    between atoms: _206  and  _207
REMARK   87  A    between atoms: _209  and  _211
REMARK   88  A    between atoms: _211  and  _212
REMARK   89  A    between atoms: _211  and  _214
REMARK   90  A    between atoms: _214  and  _215
REMARK   91  A    between atoms: _217  and  _219
REMARK   92  A    between atoms: _219  and  _220
REMARK   93  A    between atoms: _219  and  _222
REMARK   94  A    between atoms: _222  and  _223
REMARK   95  A    between atoms: _225  and  _227
REMARK   96  A    between atoms: _227  and  _228
REMARK   97  A    between atoms: _227  and  _230
REMARK   98  A    between atoms: _230  and  _231
REMARK   99  A    between atoms: _233  and  _235
REMARK  100  A    between atoms: _235  and  _236
REMARK  101  A    between atoms: _235  and  _238
REMARK  102  A    between atoms: _238  and  _239
REMARK  103  A    between atoms: _245  and  _247
REMARK  104  A    between atoms: _247  and  _248
REMARK  105  A    between atoms: _247  and  _250
REMARK  106  A    between atoms: _250  and  _251
REMARK  107  A    between atoms: _251  and  _252
REMARK  108  A    between atoms: _255  and  _257
REMARK  109  A    between atoms: _257  and  _258
REMARK  110  A    between atoms: _257  and  _260
REMARK  111  A    between atoms: _260  and  _261
REMARK  112  A    between atoms: _264  and  _266
REMARK  113  A    between atoms: _266  and  _267
REMARK  114  A    between atoms: _266  and  _269
REMARK  115  A    between atoms: _269  and  _270
REMARK  116  A    between atoms: _272  and  _274
REMARK  117  A    between atoms: _274  and  _275
REMARK  118  A    between atoms: _274  and  _277
REMARK  119  A    between atoms: _277  and  _278
REMARK  120  A    between atoms: _281  and  _283
REMARK  121  A    between atoms: _283  and  _284
REMARK  122  A    between atoms: _283  and  _286
REMARK  123  A    between atoms: _286  and  _287
REMARK  124  A    between atoms: _290  and  _292
REMARK  125  A    between atoms: _292  and  _293
REMARK  126  A    between atoms: _295  and  _297
REMARK  127  A    between atoms: _297  and  _298
REMARK  128  A    between atoms: _297  and  _300
REMARK  129  A    between atoms: _300  and  _301
REMARK  130  A    between atoms: _304  and  _306
REMARK  131  A    between atoms: _306  and  _307
REMARK  132  A    between atoms: _306  and  _309
REMARK  133  A    between atoms: _309  and  _310
REMARK  134  A    between atoms: _313  and  _315
REMARK  135  A    between atoms: _315  and  _316
REMARK  136  A    between atoms: _315  and  _318
REMARK  137  A    between atoms: _318  and  _319
REMARK  138  A    between atoms: _322  and  _324
REMARK  139  A    between atoms: _324  and  _325
REMARK  140  A    between atoms: _328  and  _330
REMARK  141  A    between atoms: _330  and  _331
REMARK  142  A    between atoms: _330  and  _333
REMARK  143  A    between atoms: _333  and  _334
REMARK  144  A    between atoms: _340  and  _342
REMARK  145  A    between atoms: _342  and  _343
REMARK  146  A    between atoms: _342  and  _345
REMARK  147  A    between atoms: _345  and  _346
REMARK  148  A    between atoms: _349  and  _351
REMARK  149  A    between atoms: _351  and  _352
REMARK  150  A    between atoms: _351  and  _354
REMARK  151  A    between atoms: _354  and  _355
REMARK  152  A    between atoms: _358  and  _360
REMARK  153  A    between atoms: _360  and  _361
REMARK  154  A    between atoms: _360  and  _363
REMARK  155  A    between atoms: _363  and  _364
REMARK  156  A    between atoms: _369  and  _371
REMARK  157  A    between atoms: _371  and  _372
REMARK  158  A    between atoms: _371  and  _374
REMARK  159  A    between atoms: _374  and  _375
REMARK  160  A    between atoms: _378  and  _380
REMARK  161  A    between atoms: _380  and  _381
REMARK  162  A    between atoms: _380  and  _383
REMARK  163  A    between atoms: _383  and  _384
REMARK  164  A    between atoms: _384  and  _385
REMARK  165  A    between atoms: _390  and  _392
REMARK  166  A    between atoms: _392  and  _393
REMARK  167  A    between atoms: _392  and  _395
REMARK  168  A    between atoms: _395  and  _396
REMARK  169  A    between atoms: _396  and  _397
REMARK  170  A    between atoms: _402  and  _404
REMARK  171  A    between atoms: _404  and  _405
REMARK  172  A    between atoms: _407  and  _409
REMARK  173  A    between atoms: _409  and  _410
REMARK  174  A    between atoms: _409  and  _412
REMARK  175  A    between atoms: _412  and  _413
REMARK  176  A    between atoms: _419  and  _421
REMARK  177  A    between atoms: _421  and  _422
REMARK  178  A    between atoms: _421  and  _424
REMARK  179  A    between atoms: _424  and  _425
REMARK  180  A    between atoms: _428  and  _430
REMARK  181  A    between atoms: _430  and  _431
REMARK  182  A    between atoms: _434  and  _436
REMARK  183  A    between atoms: _436  and  _437
REMARK  184  A    between atoms: _436  and  _439
REMARK  185  A    between atoms: _439  and  _440
REMARK  186  A    between atoms: _443  and  _445
REMARK  187  A    between atoms: _445  and  _446
REMARK  188  A    between atoms: _445  and  _448
REMARK  189  A    between atoms: _448  and  _449
REMARK  190  A    between atoms: _452  and  _454
REMARK  191  A    between atoms: _454  and  _455
REMARK  192  A    between atoms: _457  and  _459
REMARK  193  A    between atoms: _459  and  _460
REMARK  194  A    between atoms: _459  and  _462
REMARK  195  A    between atoms: _462  and  _463
REMARK  196  A    between atoms: _466  and  _468
REMARK  197  A    between atoms: _468  and  _469
REMARK  198  A    between atoms: _468  and  _471
REMARK  199  A    between atoms: _471  and  _472
REMARK  200  A    between atoms: _475  and  _477
REMARK  201  A    between atoms: _477  and  _478
REMARK  202  A    between atoms: _477  and  _480
REMARK  203  A    between atoms: _480  and  _481
REMARK  204  A    between atoms: _484  and  _486
REMARK  205  A    between atoms: _486  and  _487
REMARK  206  A    between atoms: _486  and  _489
REMARK  207  A    between atoms: _489  and  _490
REMARK  208  A    between atoms: _495  and  _496
REMARK  209  A    between atoms: _498  and  _500
REMARK  210  A    between atoms: _500  and  _501
REMARK  211  A    between atoms: _500  and  _503
REMARK  212  A    between atoms: _503  and  _504
REMARK  213  A    between atoms: _510  and  _512
REMARK  214  A    between atoms: _512  and  _513
REMARK  215  A    between atoms: _515  and  _517
REMARK  216  A    between atoms: _517  and  _518
REMARK  217  A    between atoms: _517  and  _520
REMARK  218  A    between atoms: _520  and  _521
REMARK  219  A    between atoms: _524  and  _526
REMARK  220  A    between atoms: _526  and  _527
REMARK  221  A    between atoms: _529  and  _531
REMARK  222  A    between atoms: _531  and  _532
REMARK  223  A    between atoms: _531  and  _534
REMARK  224  A    between atoms: _534  and  _535
REMARK  225  A    between atoms: _538  and  _540
REMARK  226  A    between atoms: _540  and  _541
REMARK  227  A    between atoms: _540  and  _543
REMARK  228  A    between atoms: _543  and  _544
REMARK  229  A    between atoms: _549  and  _551
REMARK  230  A    between atoms: _551  and  _552
REMARK  231  A    between atoms: _551  and  _554
REMARK  232  A    between atoms: _554  and  _555
REMARK  233  A    between atoms: _558  and  _560
REMARK  234  A    between atoms: _560  and  _561
REMARK  235  A    between atoms: _563  and  _565
REMARK  236  A    between atoms: _565  and  _566
REMARK  237  A    between atoms: _565  and  _568
REMARK  238  A    between atoms: _568  and  _569
REMARK                            x       y       z     vdW  Elec       q    Type
REMARK                         _______ _______ _______ _____ _____    ______ ____
ROOT
ATOM      1  CA  LEU A   2       2.189  -3.713  14.455  0.00  0.00    +0.149 C 
ENDROOT
BRANCH   1   3
ATOM      2  C   GLY A   1       0.364  -5.319  14.873  0.00  0.00    +0.240 C 
ATOM      3  N   LEU A   2       1.274  -4.464  15.289  0.00  0.00    -0.297 N 
ATOM      4  H   LEU A   2       1.343  -4.313  16.316  0.00  0.00    +0.150 HD
ATOM      5  O   GLY A   1       0.221  -5.645  13.672  0.00  0.00    -0.274 OA
BRANCH   2   6
ATOM      6  CA  GLY A   1      -0.536  -5.891  15.958  0.00  0.00    +0.169 C 
BRANCH   6   7
ATOM      7  N   GLY A   1      -1.371  -6.947  15.429  0.00  0.00    -0.236 NA
ATOM      8  H   GLY A   1      -1.616  -6.926  14.418  0.00  0.00    +0.142 HD
ENDBRANCH   6   7
ENDBRANCH   2   6
ENDBRANCH   1   3
BRANCH   1   9
ATOM      9  C   LEU A   2       3.617  -4.051  14.834  0.00  0.00    +0.241 C 
ATOM     10  O   LEU A   2       3.887  -4.246  16.033  0.00  0.00    -0.273 OA
ATOM     11  N   LEU A   3       4.497  -4.059  13.859  0.00  0.00    -0.298 N 
ATOM     12  H   LEU A   3       4.163  -4.014  12.875  0.00  0.00    +0.150 HD
BRANCH  11  13
ATOM     13  CA  LEU A   3       5.934  -4.130  14.120  0.00  0.00    +0.137 C 
BRANCH  13  14
ATOM     14  C   LEU A   3       6.542  -2.928  13.426  0.00  0.00    +0.227 C 
ATOM     15  O   LEU A   3       6.670  -2.894  12.205  0.00  0.00    -0.286 OA
ENDBRANCH  13  14
BRANCH  13  16
ATOM     16  CB  LEU A   3       6.519  -5.453  13.667  0.00  0.00    +0.028 C 
BRANCH  16  17
ATOM     17  CG  LEU A   3       7.981  -5.679  14.095  0.00  0.00    +0.002 C 
ATOM     18  CD2 LEU A   3       8.225  -7.134  14.404  0.00  0.00    +0.000 C 
ATOM     19  CD1 LEU A   3       8.941  -5.154  13.037  0.00  0.00    +0.000 C 
ENDBRANCH  16  17
ENDBRANCH  13  16
ENDBRANCH  11  13
ENDBRANCH   1   9
BRANCH   1  20
ATOM     20  CB  LEU A   2       2.034  -2.185  14.662  0.00  0.00    +0.029 C 
BRANCH  20  21
ATOM     21  CG  LEU A   2       1.018  -1.452  13.823  0.00  0.00    +0.002 C 
ATOM     22  CD2 LEU A   2      -0.338  -2.135  13.672  0.00  0.00    +0.000 C 
ATOM     23  CD1 LEU A   2       1.660  -1.219  12.476  0.00  0.00    +0.000 C 
ENDBRANCH  20  21
ENDBRANCH   1  20
TORSDOF 10
REMARK  Name = ../refined-set-2016/3prs/3prs_pocket.pdb
REMARK  238 active torsions:
REMARK  status: ('A' for Active; 'I' for Inactive)
REMARK    1  A    between atoms: _1  and  _3
REMARK    2  A    between atoms: _3  and  _4
REMARK    3  A    between atoms: _3  and  _6
REMARK    4  A    between atoms: _6  and  _7
REMARK    5  A    between atoms: _10  and  _12
REMARK    6  A    between atoms: _12  and  _13
REMARK    7  A    between atoms: _12  and  _15
REMARK    8  A    between atoms: _15  and  _16
REMARK    9  A    between atoms: _19  and  _21
REMARK   10  A    between atoms: _21  and  _22
REMARK   11  A    between atoms: _21  and  _24
REMARK   12  A    between atoms: _24  and  _25
REMARK   13  A    between atoms: _28  and  _30
REMARK   14  A    between atoms: _30  and  _31
REMARK   15  A    between atoms: _30  and  _33
REMARK   16  A    between atoms: _33  and  _34
REMARK   17  A    between atoms: _37  and  _39
REMARK   18  A    between atoms: _39  and  _40
REMARK   19  A    between atoms: _39  and  _42
REMARK   20  A    between atoms: _42  and  _43
REMARK   21  A    between atoms: _46  and  _48
REMARK   22  A    between atoms: _48  and  _49
REMARK   23  A    between atoms: _52  and  _54
REMARK   24  A    between atoms: _54  and  _55
REMARK   25  A    between atoms: _54  and  _57
REMARK   26  A    between atoms: _57  and  _58
REMARK   27  A    between atoms: _63  and  _64
REMARK   28  A    between atoms: _66  and  _68
REMARK   29  A    between atoms: _68  and  _69
REMARK   30  A    between atoms: _68  and  _71
REMARK   31  A    between atoms: _71  and  _72
REMARK   32  A    between atoms: _75  and  _77
REMARK   33  A    between atoms: _77  and  _78
REMARK   34  A    between atoms: _77  and  _80
REMARK   35  A    between atoms: _80  and  _81
REMARK   36  A    between atoms: _87  and  _89
REMARK   37  A    between atoms: _89  and  _90
REMARK   38  A    between atoms: _89  and  _92
REMARK   39  A    between atoms: _92  and  _93
REMARK   40  A    between atoms: _96  and  _98
REMARK   41  A    between atoms: _98  and  _99
REMARK   42  A    between atoms: _98  and  _101
REMARK   43  A    between atoms: _101  and  _102
REMARK   44  A    between atoms: _105  and  _107
REMARK   45  A    between atoms: _107  and  _108
REMARK   46  A    between atoms: _110  and  _112
REMARK   47  A    between atoms: _112  and  _113
REMARK   48  A    between atoms: _112  and  _115
REMARK   49  A    between atoms: _115  and  _116
REMARK   50  A    between atoms: _118  and  _120
REMARK   51  A    between atoms: _120  and  _121
REMARK   52  A    between atoms: _120  and  _123
REMARK   53  A    between atoms: _123  and  _124
REMARK   54  A    between atoms: _126  and  _128
REMARK   55  A    between atoms: _128  and  _129
REMARK   56  A    between atoms: _128  and  _131
REMARK   57  A    between atoms: _131  and  _132
REMARK   58  A    between atoms: _135  and  _137
REMARK   59  A    between atoms: _137  and  _138
REMARK   60  A    between atoms: _137  and  _140
REMARK   61  A    between atoms: _140  and  _141
REMARK   62  A    between atoms: _151  and  _153
REMARK   63  A    between atoms: _153  and  _154
REMARK   64  A    between atoms: _153  and  _156
REMARK   65  A    between atoms: _156  and  _157
REMARK   66  A    between atoms: _159  and  _161
REMARK   67  A    between atoms: _161  and  _162
REMARK   68  A    between atoms: _161  and  _164
REMARK   69  A    between atoms: _164  and  _165
REMARK   70  A    between atoms: _168  and  _170
REMARK   71  A    between atoms: _170  and  _171
REMARK   72  A    between atoms: _170  and  _173
REMARK   73  A    between atoms: _173  and  _174
REMARK   74  A    between atoms: _176  and  _178
REMARK   75  A    between atoms: _178  and  _179
REMARK   76  A    between atoms: _178  and  _181
REMARK   77  A    between atoms: _181  and  _182
REMARK   78  A    between atoms: _187  and  _188
REMARK   79  A    between atoms: _190  and  _192
REMARK   80  A    between atoms: _192  and  _193
REMARK   81  A    between atoms: _195  and  _197
REMARK   82  A    between atoms: _197  and  _198
REMARK   83  A    between atoms: _197  and  _200
REMARK   84  A    between atoms: _200  and  _201
REMARK   85  A    between atoms: _204  and  _206
REMARK   86  A    between atoms: _206  and  _207
REMARK   87  A    between atoms: _209  and  _211
REMARK   88  A    between atoms: _211  and  _212
REMARK   89  A    between atoms: _211  and  _214
REMARK   90  A    between atoms: _214  and  _215
REMARK   91  A    between atoms: _217  and  _219
REMARK   92  A    between atoms: _219  and  _220
REMARK   93  A    between atoms: _219  and  _222
REMARK   94  A    between atoms: _222  and  _223
REMARK   95  A    between atoms: _225  and  _227
REMARK   96  A    between atoms: _227  and  _228
REMARK   97  A    between atoms: _227  and  _230
REMARK   98  A    between atoms: _230  and  _231
REMARK   99  A    between atoms: _233  and  _235
REMARK  100  A    between atoms: _235  and  _236
REMARK  101  A    between atoms: _235  and  _238
REMARK  102  A    between atoms: _238  and  _239
REMARK  103  A    between atoms: _245  and  _247
REMARK  104  A    between atoms: _247  and  _248
REMARK  105  A    between atoms: _247  and  _250
REMARK  106  A    between atoms: _250  and  _251
REMARK  107  A    between atoms: _251  and  _252
REMARK  108  A    between atoms: _255  and  _257
REMARK  109  A    between atoms: _257  and  _258
REMARK  110  A    between atoms: _257  and  _260
REMARK  111  A    between atoms: _260  and  _261
REMARK  112  A    between atoms: _264  and  _266
REMARK  113  A    between atoms: _266  and  _267
REMARK  114  A    between atoms: _266  and  _269
REMARK  115  A    between atoms: _269  and  _270
REMARK  116  A    between atoms: _272  and  _274
REMARK  117  A    between atoms: _274  and  _275
REMARK  118  A    between atoms: _274  and  _277
REMARK  119  A    between atoms: _277  and  _278
REMARK  120  A    between atoms: _281  and  _283
REMARK  121  A    between atoms: _283  and  _284
REMARK  122  A    between atoms: _283  and  _286
REMARK  123  A    between atoms: _286  and  _287
REMARK  124  A    between atoms: _290  and  _292
REMARK  125  A    between atoms: _292  and  _293
REMARK  126  A    between atoms: _295  and  _297
REMARK  127  A    between atoms: _297  and  _298
REMARK  128  A    between atoms: _297  and  _300
REMARK  129  A    between atoms: _300  and  _301
REMARK  130  A    between atoms: _304  and  _306
REMARK  131  A    between atoms: _306  and  _307
REMARK  132  A    between atoms: _306  and  _309
REMARK  133  A    between atoms: _309  and  _310
REMARK  134  A    between atoms: _313  and  _315
REMARK  135  A    between atoms: _315  and  _316
REMARK  136  A    between atoms: _315  and  _318
REMARK  137  A    between atoms: _318  and  _319
REMARK  138  A    between atoms: _322  and  _324
REMARK  139  A    between atoms: _324  and  _325
REMARK  140  A    between atoms: _328  and  _330
REMARK  141  A    between atoms: _330  and  _331
REMARK  142  A    between atoms: _330  and  _333
REMARK  143  A    between atoms: _333  and  _334
REMARK  144  A    between atoms: _340  and  _342
REMARK  145  A    between atoms: _342  and  _343
REMARK  146  A    between atoms: _342  and  _345
REMARK  147  A    between atoms: _345  and  _346
REMARK  148  A    between atoms: _349  and  _351
REMARK  149  A    between atoms: _351  and  _352
REMARK  150  A    between atoms: _351  and  _354
REMARK  151  A    between atoms: _354  and  _355
REMARK  152  A    between atoms: _358  and  _360
REMARK  153  A    between atoms: _360  and  _361
REMARK  154  A    between atoms: _360  and  _363
REMARK  155  A    between atoms: _363  and  _364
REMARK  156  A    between atoms: _369  and  _371
REMARK  157  A    between atoms: _371  and  _372
REMARK  158  A    between atoms: _371  and  _374
REMARK  159  A    between atoms: _374  and  _375
REMARK  160  A    between atoms: _378  and  _380
REMARK  161  A    between atoms: _380  and  _381
REMARK  162  A    between atoms: _380  and  _383
REMARK  163  A    between atoms: _383  and  _384
REMARK  164  A    between atoms: _384  and  _385
REMARK  165  A    between atoms: _390  and  _392
REMARK  166  A    between atoms: _392  and  _393
REMARK  167  A    between atoms: _392  and  _395
REMARK  168  A    between atoms: _395  and  _396
REMARK  169  A    between atoms: _396  and  _397
REMARK  170  A    between atoms: _402  and  _404
REMARK  171  A    between atoms: _404  and  _405
REMARK  172  A    between atoms: _407  and  _409
REMARK  173  A    between atoms: _409  and  _410
REMARK  174  A    between atoms: _409  and  _412
REMARK  175  A    between atoms: _412  and  _413
REMARK  176  A    between atoms: _419  and  _421
REMARK  177  A    between atoms: _421  and  _422
REMARK  178  A    between atoms: _421  and  _424
REMARK  179  A    between atoms: _424  and  _425
REMARK  180  A    between atoms: _428  and  _430
REMARK  181  A    between atoms: _430  and  _431
REMARK  182  A    between atoms: _434  and  _436
REMARK  183  A    between atoms: _436  and  _437
REMARK  184  A    between atoms: _436  and  _439
REMARK  185  A    between atoms: _439  and  _440
REMARK  186  A    between atoms: _443  and  _445
REMARK  187  A    between atoms: _445  and  _446
REMARK  188  A    between atoms: _445  and  _448
REMARK  189  A    between atoms: _448  and  _449
REMARK  190  A    between atoms: _452  and  _454
REMARK  191  A    between atoms: _454  and  _455
REMARK  192  A    between atoms: _457  and  _459
REMARK  193  A    between atoms: _459  and  _460
REMARK  194  A    between atoms: _459  and  _462
REMARK  195  A    between atoms: _462  and  _463
REMARK  196  A    between atoms: _466  and  _468
REMARK  197  A    between atoms: _468  and  _469
REMARK  198  A    between atoms: _468  and  _471
REMARK  199  A    between atoms: _471  and  _472
REMARK  200  A    between atoms: _475  and  _477
REMARK  201  A    between atoms: _477  and  _478
REMARK  202  A    between atoms: _477  and  _480
REMARK  203  A    between atoms: _480  and  _481
REMARK  204  A    between atoms: _484  and  _486
REMARK  205  A    between atoms: _486  and  _487
REMARK  206  A    between atoms: _486  and  _489
REMARK  207  A    between atoms: _489  and  _490
REMARK  208  A    between atoms: _495  and  _496
REMARK  209  A    between atoms: _498  and  _500
REMARK  210  A    between atoms: _500  and  _501
REMARK  211  A    between atoms: _500  and  _503
REMARK  212  A    between atoms: _503  and  _504
REMARK  213  A    between atoms: _510  and  _512
REMARK  214  A    between atoms: _512  and  _513
REMARK  215  A    between atoms: _515  and  _517
REMARK  216  A    between atoms: _517  and  _518
REMARK  217  A    between atoms: _517  and  _520
REMARK  218  A    between atoms: _520  and  _521
REMARK  219  A    between atoms: _524  and  _526
REMARK  220  A    between atoms: _526  and  _527
REMARK  221  A    between atoms: _529  and  _531
REMARK  222  A    between atoms: _531  and  _532
REMARK  223  A    between atoms: _531  and  _534
REMARK  224  A    between atoms: _534  and  _535
REMARK  225  A    between atoms: _538  and  _540
REMARK  226  A    between atoms: _540  and  _541
REMARK  227  A    between atoms: _540  and  _543
REMARK  228  A    between atoms: _543  and  _544
REMARK  229  A    between atoms: _549  and  _551
REMARK  230  A    between atoms: _551  and  _552
REMARK  231  A    between atoms: _551  and  _554
REMARK  232  A    between atoms: _554  and  _555
REMARK  233  A    between atoms: _558  and  _560
REMARK  234  A    between atoms: _560  and  _561
REMARK  235  A    between atoms: _563  and  _565
REMARK  236  A    between atoms: _565  and  _566
REMARK  237  A    between atoms: _565  and  _568
REMARK  238  A    between atoms: _568  and  _569
REMARK                            x       y       z     vdW  Elec       q    Type
REMARK                         _______ _______ _______ _____ _____    ______ ____
ROOT
ATOM      1  C   ALA A   2      11.932   3.731  12.421  0.00  0.00    +0.241 C 
ATOM      2  O   ALA A   2      12.366   2.757  13.036  0.00  0.00    -0.273 OA
ATOM      3  N   PHE A   3      12.419   4.972  12.619  0.00  0.00    -0.298 N 
ATOM      4  H   PHE A   3      11.993   5.784  12.128  0.00  0.00    +0.150 HD
ENDROOT
BRANCH   1   5
ATOM      5  CA  ALA A   2      10.837   3.598  11.353  0.00  0.00    +0.149 C 
ATOM      6  CB  ALA A   2       9.749   4.640  11.455  0.00  0.00    +0.031 C 
BRANCH   5   8
ATOM      7  C   LEU A   1      10.937   1.200  10.937  0.00  0.00    +0.238 C 
ATOM      8  N   ALA A   2      10.261   2.246  11.418  0.00  0.00    -0.297 N 
ATOM      9  H   ALA A   2       9.322   2.104  11.841  0.00  0.00    +0.150 HD
ATOM     10  O   LEU A   1      11.914   1.293  10.199  0.00  0.00    -0.274 OA
BRANCH   7  11
ATOM     11  CA  LEU A   1      10.445  -0.194  11.367  0.00  0.00    +0.145 C 
BRANCH  11  12
ATOM     12  N   LEU A   1       9.143  -0.171  12.022  0.00  0.00    -0.238 NA
ATOM     13  H   LEU A   1       8.373   0.358  11.565  0.00  0.00    +0.142 HD
ENDBRANCH  11  12
BRANCH  11  14
ATOM     14  CB  LEU A   1      10.420  -1.159  10.191  0.00  0.00    +0.026 C 
BRANCH  14  15
ATOM     15  CG  LEU A   1      10.243  -2.635  10.533  0.00  0.00    +0.002 C 
ATOM     16  CD2 LEU A   1      11.478  -3.147  11.227  0.00  0.00    +0.000 C 
ATOM     17  CD1 LEU A   1       9.940  -3.403   9.265  0.00  0.00    +0.000 C 
ENDBRANCH  14  15
ENDBRANCH  11  14
ENDBRANCH   7  11
ENDBRANCH   5   8
ENDBRANCH   1   5
BRANCH   3  18
ATOM     18  CA  PHE A   3      13.550   5.174  13.528  0.00  0.00    +0.141 C 
BRANCH  18  19
ATOM     19  C   PHE A   3      13.090   5.141  14.977  0.00  0.00    +0.227 C 
ATOM     20  O   PHE A   3      11.970   5.557  15.304  0.00  0.00    -0.286 OA
ENDBRANCH  18  19
BRANCH  18  21
ATOM     21  CB  PHE A   3      14.304   6.470  13.172  0.00  0.00    +0.054 C 
BRANCH  21  22
ATOM     22  CG  PHE A   3      14.970   6.265  11.807  0.00  0.00    -0.020 A 
ATOM     23  CD2 PHE A   3      16.237   5.693  11.714  0.00  0.00    -0.004 A 
ATOM     24  CE2 PHE A   3      16.845   5.416  10.501  0.00  0.00    -0.000 A 
ATOM     25  CZ  PHE A   3      16.170   5.749   9.350  0.00  0.00    -0.000 A 
ATOM     26  CE1 PHE A   3      14.946   6.358   9.420  0.00  0.00    -0.000 A 
ATOM     27  CD1 PHE A   3      14.352   6.617  10.635  0.00  0.00    -0.004 A 
ENDBRANCH  21  22
ENDBRANCH  18  21
ENDBRANCH   3  18
TORSDOF 10
REMARK  Name = ../refined-set-2016/3prs/3prs_pocket.pdb
REMARK  238 active torsions:
REMARK  status: ('A' for Active; 'I' for Inactive)
REMARK    1  A    between atoms: _1  and  _3
REMARK    2  A    between atoms: _3  and  _4
REMARK    3  A    between atoms: _3  and  _6
REMARK    4  A    between atoms: _6  and  _7
REMARK    5  A    between atoms: _10  and  _12
REMARK    6  A    between atoms: _12  and  _13
REMARK    7  A    between atoms: _12  and  _15
REMARK    8  A    between atoms: _15  and  _16
REMARK    9  A    between atoms: _19  and  _21
REMARK   10  A    between atoms: _21  and  _22
REMARK   11  A    between atoms: _21  and  _24
REMARK   12  A    between atoms: _24  and  _25
REMARK   13  A    between atoms: _28  and  _30
REMARK   14  A    between atoms: _30  and  _31
REMARK   15  A    between atoms: _30  and  _33
REMARK   16  A    between atoms: _33  and  _34
REMARK   17  A    between atoms: _37  and  _39
REMARK   18  A    between atoms: _39  and  _40
REMARK   19  A    between atoms: _39  and  _42
REMARK   20  A    between atoms: _42  and  _43
REMARK   21  A    between atoms: _46  and  _48
REMARK   22  A    between atoms: _48  and  _49
REMARK   23  A    between atoms: _52  and  _54
REMARK   24  A    between atoms: _54  and  _55
REMARK   25  A    between atoms: _54  and  _57
REMARK   26  A    between atoms: _57  and  _58
REMARK   27  A    between atoms: _63  and  _64
REMARK   28  A    between atoms: _66  and  _68
REMARK   29  A    between atoms: _68  and  _69
REMARK   30  A    between atoms: _68  and  _71
REMARK   31  A    between atoms: _71  and  _72
REMARK   32  A    between atoms: _75  and  _77
REMARK   33  A    between atoms: _77  and  _78
REMARK   34  A    between atoms: _77  and  _80
REMARK   35  A    between atoms: _80  and  _81
REMARK   36  A    between atoms: _87  and  _89
REMARK   37  A    between atoms: _89  and  _90
REMARK   38  A    between atoms: _89  and  _92
REMARK   39  A    between atoms: _92  and  _93
REMARK   40  A    between atoms: _96  and  _98
REMARK   41  A    between atoms: _98  and  _99
REMARK   42  A    between atoms: _98  and  _101
REMARK   43  A    between atoms: _101  and  _102
REMARK   44  A    between atoms: _105  and  _107
REMARK   45  A    between atoms: _107  and  _108
REMARK   46  A    between atoms: _110  and  _112
REMARK   47  A    between atoms: _112  and  _113
REMARK   48  A    between atoms: _112  and  _115
REMARK   49  A    between atoms: _115  and  _116
REMARK   50  A    between atoms: _118  and  _120
REMARK   51  A    between atoms: _120  and  _121
REMARK   52  A    between atoms: _120  and  _123
REMARK   53  A    between atoms: _123  and  _124
REMARK   54  A    between atoms: _126  and  _128
REMARK   55  A    between atoms: _128  and  _129
REMARK   56  A    between atoms: _128  and  _131
REMARK   57  A    between atoms: _131  and  _132
REMARK   58  A    between atoms: _135  and  _137
REMARK   59  A    between atoms: _137  and  _138
REMARK   60  A    between atoms: _137  and  _140
REMARK   61  A    between atoms: _140  and  _141
REMARK   62  A    between atoms: _151  and  _153
REMARK   63  A    between atoms: _153  and  _154
REMARK   64  A    between atoms: _153  and  _156
REMARK   65  A    between atoms: _156  and  _157
REMARK   66  A    between atoms: _159  and  _161
REMARK   67  A    between atoms: _161  and  _162
REMARK   68  A    between atoms: _161  and  _164
REMARK   69  A    between atoms: _164  and  _165
REMARK   70  A    between atoms: _168  and  _170
REMARK   71  A    between atoms: _170  and  _171
REMARK   72  A    between atoms: _170  and  _173
REMARK   73  A    between atoms: _173  and  _174
REMARK   74  A    between atoms: _176  and  _178
REMARK   75  A    between atoms: _178  and  _179
REMARK   76  A    between atoms: _178  and  _181
REMARK   77  A    between atoms: _181  and  _182
REMARK   78  A    between atoms: _187  and  _188
REMARK   79  A    between atoms: _190  and  _192
REMARK   80  A    between atoms: _192  and  _193
REMARK   81  A    between atoms: _195  and  _197
REMARK   82  A    between atoms: _197  and  _198
REMARK   83  A    between atoms: _197  and  _200
REMARK   84  A    between atoms: _200  and  _201
REMARK   85  A    between atoms: _204  and  _206
REMARK   86  A    between atoms: _206  and  _207
REMARK   87  A    between atoms: _209  and  _211
REMARK   88  A    between atoms: _211  and  _212
REMARK   89  A    between atoms: _211  and  _214
REMARK   90  A    between atoms: _214  and  _215
REMARK   91  A    between atoms: _217  and  _219
REMARK   92  A    between atoms: _219  and  _220
REMARK   93  A    between atoms: _219  and  _222
REMARK   94  A    between atoms: _222  and  _223
REMARK   95  A    between atoms: _225  and  _227
REMARK   96  A    between atoms: _227  and  _228
REMARK   97  A    between atoms: _227  and  _230
REMARK   98  A    between atoms: _230  and  _231
REMARK   99  A    between atoms: _233  and  _235
REMARK  100  A    between atoms: _235  and  _236
REMARK  101  A    between atoms: _235  and  _238
REMARK  102  A    between atoms: _238  and  _239
REMARK  103  A    between atoms: _245  and  _247
REMARK  104  A    between atoms: _247  and  _248
REMARK  105  A    between atoms: _247  and  _250
REMARK  106  A    between atoms: _250  and  _251
REMARK  107  A    between atoms: _251  and  _252
REMARK  108  A    between atoms: _255  and  _257
REMARK  109  A    between atoms: _257  and  _258
REMARK  110  A    between atoms: _257  and  _260
REMARK  111  A    between atoms: _260  and  _261
REMARK  112  A    between atoms: _264  and  _266
REMARK  113  A    between atoms: _266  and  _267
REMARK  114  A    between atoms: _266  and  _269
REMARK  115  A    between atoms: _269  and  _270
REMARK  116  A    between atoms: _272  and  _274
REMARK  117  A    between atoms: _274  and  _275
REMARK  118  A    between atoms: _274  and  _277
REMARK  119  A    between atoms: _277  and  _278
REMARK  120  A    between atoms: _281  and  _283
REMARK  121  A    between atoms: _283  and  _284
REMARK  122  A    between atoms: _283  and  _286
REMARK  123  A    between atoms: _286  and  _287
REMARK  124  A    between atoms: _290  and  _292
REMARK  125  A    between atoms: _292  and  _293
REMARK  126  A    between atoms: _295  and  _297
REMARK  127  A    between atoms: _297  and  _298
REMARK  128  A    between atoms: _297  and  _300
REMARK  129  A    between atoms: _300  and  _301
REMARK  130  A    between atoms: _304  and  _306
REMARK  131  A    between atoms: _306  and  _307
REMARK  132  A    between atoms: _306  and  _309
REMARK  133  A    between atoms: _309  and  _310
REMARK  134  A    between atoms: _313  and  _315
REMARK  135  A    between atoms: _315  and  _316
REMARK  136  A    between atoms: _315  and  _318
REMARK  137  A    between atoms: _318  and  _319
REMARK  138  A    between atoms: _322  and  _324
REMARK  139  A    between atoms: _324  and  _325
REMARK  140  A    between atoms: _328  and  _330
REMARK  141  A    between atoms: _330  and  _331
REMARK  142  A    between atoms: _330  and  _333
REMARK  143  A    between atoms: _333  and  _334
REMARK  144  A    between atoms: _340  and  _342
REMARK  145  A    between atoms: _342  and  _343
REMARK  146  A    between atoms: _342  and  _345
REMARK  147  A    between atoms: _345  and  _346
REMARK  148  A    between atoms: _349  and  _351
REMARK  149  A    between atoms: _351  and  _352
REMARK  150  A    between atoms: _351  and  _354
REMARK  151  A    between atoms: _354  and  _355
REMARK  152  A    between atoms: _358  and  _360
REMARK  153  A    between atoms: _360  and  _361
REMARK  154  A    between atoms: _360  and  _363
REMARK  155  A    between atoms: _363  and  _364
REMARK  156  A    between atoms: _369  and  _371
REMARK  157  A    between atoms: _371  and  _372
REMARK  158  A    between atoms: _371  and  _374
REMARK  159  A    between atoms: _374  and  _375
REMARK  160  A    between atoms: _378  and  _380
REMARK  161  A    between atoms: _380  and  _381
REMARK  162  A    between atoms: _380  and  _383
REMARK  163  A    between atoms: _383  and  _384
REMARK  164  A    between atoms: _384  and  _385
REMARK  165  A    between atoms: _390  and  _392
REMARK  166  A    between atoms: _392  and  _393
REMARK  167  A    between atoms: _392  and  _395
REMARK  168  A    between atoms: _395  and  _396
REMARK  169  A    between atoms: _396  and  _397
REMARK  170  A    between atoms: _402  and  _404
REMARK  171  A    between atoms: _404  and  _405
REMARK  172  A    between atoms: _407  and  _409
REMARK  173  A    between atoms: _409  and  _410
REMARK  174  A    between atoms: _409  and  _412
REMARK  175  A    between atoms: _412  and  _413
REMARK  176  A    between atoms: _419  and  _421
REMARK  177  A    between atoms: _421  and  _422
REMARK  178  A    between atoms: _421  and  _424
REMARK  179  A    between atoms: _424  and  _425
REMARK  180  A    between atoms: _428  and  _430
REMARK  181  A    between atoms: _430  and  _431
REMARK  182  A    between atoms: _434  and  _436
REMARK  183  A    between atoms: _436  and  _437
REMARK  184  A    between atoms: _436  and  _439
REMARK  185  A    between atoms: _439  and  _440
REMARK  186  A    between atoms: _443  and  _445
REMARK  187  A    between atoms: _445  and  _446
REMARK  188  A    between atoms: _445  and  _448
REMARK  189  A    between atoms: _448  and  _449
REMARK  190  A    between atoms: _452  and  _454
REMARK  191  A    between atoms: _454  and  _455
REMARK  192  A    between atoms: _457  and  _459
REMARK  193  A    between atoms: _459  and  _460
REMARK  194  A    between atoms: _459  and  _462
REMARK  195  A    between atoms: _462  and  _463
REMARK  196  A    between atoms: _466  and  _468
REMARK  197  A    between atoms: _468  and  _469
REMARK  198  A    between atoms: _468  and  _471
REMARK  199  A    between atoms: _471  and  _472
REMARK  200  A    between atoms: _475  and  _477
REMARK  201  A    between atoms: _477  and  _478
REMARK  202  A    between atoms: _477  and  _480
REMARK  203  A    between atoms: _480  and  _481
REMARK  204  A    between atoms: _484  and  _486
REMARK  205  A    between atoms: _486  and  _487
REMARK  206  A    between atoms: _486  and  _489
REMARK  207  A    between atoms: _489  and  _490
REMARK  208  A    between atoms: _495  and  _496
REMARK  209  A    between atoms: _498  and  _500
REMARK  210  A    between atoms: _500  and  _501
REMARK  211  A    between atoms: _500  and  _503
REMARK  212  A    between atoms: _503  and  _504
REMARK  213  A    between atoms: _510  and  _512
REMARK  214  A    between atoms: _512  and  _513
REMARK  215  A    between atoms: _515  and  _517
REMARK  216  A    between atoms: _517  and  _518
REMARK  217  A    between atoms: _517  and  _520
REMARK  218  A    between atoms: _520  and  _521
REMARK  219  A    between atoms: _524  and  _526
REMARK  220  A    between atoms: _526  and  _527
REMARK  221  A    between atoms: _529  and  _531
REMARK  222  A    between atoms: _531  and  _532
REMARK  223  A    between atoms: _531  and  _534
REMARK  224  A    between atoms: _534  and  _535
REMARK  225  A    between atoms: _538  and  _540
REMARK  226  A    between atoms: _540  and  _541
REMARK  227  A    between atoms: _540  and  _543
REMARK  228  A    between atoms: _543  and  _544
REMARK  229  A    between atoms: _549  and  _551
REMARK  230  A    between atoms: _551  and  _552
REMARK  231  A    between atoms: _551  and  _554
REMARK  232  A    between atoms: _554  and  _555
REMARK  233  A    between atoms: _558  and  _560
REMARK  234  A    between atoms: _560  and  _561
REMARK  235  A    between atoms: _563  and  _565
REMARK  236  A    between atoms: _565  and  _566
REMARK  237  A    between atoms: _565  and  _568
REMARK  238  A    between atoms: _568  and  _569
REMARK                            x       y       z     vdW  Elec       q    Type
REMARK                         _______ _______ _______ _____ _____    ______ ____
ROOT
ATOM      1  C   LEU A   2       8.867   6.891  18.173  0.00  0.00    +0.241 C 
ATOM      2  N   ASN A   3       9.568   5.970  18.835  0.00  0.00    -0.297 N 
ATOM      3  H   ASN A   3      10.599   5.919  18.709  0.00  0.00    +0.150 HD
ATOM      4  O   LEU A   2       7.642   6.963  18.322  0.00  0.00    -0.273 OA
ENDROOT
BRANCH   2   5
ATOM      5  CA  ASN A   3       8.909   5.040  19.728  0.00  0.00    +0.158 C 
BRANCH   5   6
ATOM      6  C   ASN A   3       8.242   5.737  20.906  0.00  0.00    +0.241 C 
ATOM      7  O   ASN A   3       8.795   6.705  21.484  0.00  0.00    -0.273 OA
ATOM      8  N   THR A   4       7.046   5.283  21.278  0.00  0.00    -0.296 N 
ATOM      9  H   THR A   4       6.680   4.388  20.896  0.00  0.00    +0.150 HD
BRANCH   8  10
ATOM     10  CA  THR A   4       6.260   6.053  22.223  0.00  0.00    +0.164 C 
BRANCH  10  11
ATOM     11  C   THR A   4       6.412   5.570  23.658  0.00  0.00    +0.229 C 
ATOM     12  O   THR A   4       5.753   6.152  24.538  0.00  0.00    -0.286 OA
ENDBRANCH  10  11
BRANCH  10  13
ATOM     13  CB  THR A   4       4.739   6.057  21.896  0.00  0.00    +0.136 C 
ATOM     14  CG2 THR A   4       4.503   6.414  20.437  0.00  0.00    +0.034 C 
BRANCH  13  15
ATOM     15  OG1 THR A   4       4.153   4.796  22.207  0.00  0.00    -0.382 OA
ATOM     16  HG1 THR A   4       4.594   4.088  21.673  0.00  0.00    +0.210 HD
ENDBRANCH  13  15
ENDBRANCH  10  13
ENDBRANCH   8  10
ENDBRANCH   5   6
BRANCH   5  17
ATOM     17  CB  ASN A   3       9.972   4.045  20.231  0.00  0.00    +0.114 C 
BRANCH  17  18
ATOM     18  CG  ASN A   3       9.363   3.094  21.242  0.00  0.00    +0.222 C 
ATOM     19  OD1 ASN A   3       9.437   3.284  22.466  0.00  0.00    -0.275 OA
ATOM     20  ND2 ASN A   3       8.768   2.040  20.714  0.00  0.00    -0.329 N 
ATOM     21 HD21 ASN A   3       8.335   1.324  21.331  0.00  0.00    +0.145 HD
ATOM     22 HD22 ASN A   3       8.732   1.926  19.681  0.00  0.00    +0.145 HD
ENDBRANCH  17  18
ENDBRANCH   5  17
ENDBRANCH   2   5
BRANCH   1  23
ATOM     23  CA  LEU A   2       9.542   7.847  17.222  0.00  0.00    +0.149 C 
BRANCH  23  26
ATOM     24  C   THR A   1      11.785   8.460  17.994  0.00  0.00    +0.241 C 
ATOM     25  O   THR A   1      11.309   9.319  18.733  0.00  0.00    -0.274 OA
ATOM     26  N   LEU A   2      11.005   7.715  17.197  0.00  0.00    -0.297 N 
ATOM     27  H   LEU A   2      11.444   7.031  16.549  0.00  0.00    +0.150 HD
BRANCH  24  28
ATOM     28  CA  THR A   1      13.282   8.185  17.992  0.00  0.00    +0.172 C 
BRANCH  28  29
ATOM     29  CB  THR A   1      14.011   9.305  17.222  0.00  0.00    +0.135 C 
ATOM     30  CG2 THR A   1      15.511   9.250  17.474  0.00  0.00    +0.034 C 
BRANCH  29  31
ATOM     31  OG1 THR A   1      13.698   9.102  15.824  0.00  0.00    -0.383 OA
ATOM     32  HG1 THR A   1      14.145   9.800  15.282  0.00  0.00    +0.210 HD
ENDBRANCH  29  31
ENDBRANCH  28  29
BRANCH  28  33
ATOM     33  N   THR A   1      13.657   6.893  17.416  0.00  0.00    -0.236 NA
ATOM     34  H   THR A   1      14.281   6.855  16.585  0.00  0.00    +0.142 HD
ENDBRANCH  28  33
ENDBRANCH  24  28
ENDBRANCH  23  26
BRANCH  23  35
ATOM     35  CB  LEU A   2       8.929   7.644  15.817  0.00  0.00    +0.029 C 
BRANCH  35  36
ATOM     36  CG  LEU A   2       9.143   8.698  14.755  0.00  0.00    +0.002 C 
ATOM     37  CD2 LEU A   2       8.460   9.965  15.178  0.00  0.00    +0.000 C 
ATOM     38  CD1 LEU A   2       8.583   8.184  13.429  0.00  0.00    +0.000 C 
ENDBRANCH  35  36
ENDBRANCH  23  35
ENDBRANCH   1  23
TORSDOF 16
REMARK  Name = ../refined-set-2016/3prs/3prs_pocket.pdb
REMARK  238 active torsions:
REMARK  status: ('A' for Active; 'I' for Inactive)
REMARK    1  A    between atoms: _1  and  _3
REMARK    2  A    between atoms: _3  and  _4
REMARK    3  A    between atoms: _3  and  _6
REMARK    4  A    between atoms: _6  and  _7
REMARK    5  A    between atoms: _10  and  _12
REMARK    6  A    between atoms: _12  and  _13
REMARK    7  A    between atoms: _12  and  _15
REMARK    8  A    between atoms: _15  and  _16
REMARK    9  A    between atoms: _19  and  _21
REMARK   10  A    between atoms: _21  and  _22
REMARK   11  A    between atoms: _21  and  _24
REMARK   12  A    between atoms: _24  and  _25
REMARK   13  A    between atoms: _28  and  _30
REMARK   14  A    between atoms: _30  and  _31
REMARK   15  A    between atoms: _30  and  _33
REMARK   16  A    between atoms: _33  and  _34
REMARK   17  A    between atoms: _37  and  _39
REMARK   18  A    between atoms: _39  and  _40
REMARK   19  A    between atoms: _39  and  _42
REMARK   20  A    between atoms: _42  and  _43
REMARK   21  A    between atoms: _46  and  _48
REMARK   22  A    between atoms: _48  and  _49
REMARK   23  A    between atoms: _52  and  _54
REMARK   24  A    between atoms: _54  and  _55
REMARK   25  A    between atoms: _54  and  _57
REMARK   26  A    between atoms: _57  and  _58
REMARK   27  A    between atoms: _63  and  _64
REMARK   28  A    between atoms: _66  and  _68
REMARK   29  A    between atoms: _68  and  _69
REMARK   30  A    between atoms: _68  and  _71
REMARK   31  A    between atoms: _71  and  _72
REMARK   32  A    between atoms: _75  and  _77
REMARK   33  A    between atoms: _77  and  _78
REMARK   34  A    between atoms: _77  and  _80
REMARK   35  A    between atoms: _80  and  _81
REMARK   36  A    between atoms: _87  and  _89
REMARK   37  A    between atoms: _89  and  _90
REMARK   38  A    between atoms: _89  and  _92
REMARK   39  A    between atoms: _92  and  _93
REMARK   40  A    between atoms: _96  and  _98
REMARK   41  A    between atoms: _98  and  _99
REMARK   42  A    between atoms: _98  and  _101
REMARK   43  A    between atoms: _101  and  _102
REMARK   44  A    between atoms: _105  and  _107
REMARK   45  A    between atoms: _107  and  _108
REMARK   46  A    between atoms: _110  and  _112
REMARK   47  A    between atoms: _112  and  _113
REMARK   48  A    between atoms: _112  and  _115
REMARK   49  A    between atoms: _115  and  _116
REMARK   50  A    between atoms: _118  and  _120
REMARK   51  A    between atoms: _120  and  _121
REMARK   52  A    between atoms: _120  and  _123
REMARK   53  A    between atoms: _123  and  _124
REMARK   54  A    between atoms: _126  and  _128
REMARK   55  A    between atoms: _128  and  _129
REMARK   56  A    between atoms: _128  and  _131
REMARK   57  A    between atoms: _131  and  _132
REMARK   58  A    between atoms: _135  and  _137
REMARK   59  A    between atoms: _137  and  _138
REMARK   60  A    between atoms: _137  and  _140
REMARK   61  A    between atoms: _140  and  _141
REMARK   62  A    between atoms: _151  and  _153
REMARK   63  A    between atoms: _153  and  _154
REMARK   64  A    between atoms: _153  and  _156
REMARK   65  A    between atoms: _156  and  _157
REMARK   66  A    between atoms: _159  and  _161
REMARK   67  A    between atoms: _161  and  _162
REMARK   68  A    between atoms: _161  and  _164
REMARK   69  A    between atoms: _164  and  _165
REMARK   70  A    between atoms: _168  and  _170
REMARK   71  A    between atoms: _170  and  _171
REMARK   72  A    between atoms: _170  and  _173
REMARK   73  A    between atoms: _173  and  _174
REMARK   74  A    between atoms: _176  and  _178
REMARK   75  A    between atoms: _178  and  _179
REMARK   76  A    between atoms: _178  and  _181
REMARK   77  A    between atoms: _181  and  _182
REMARK   78  A    between atoms: _187  and  _188
REMARK   79  A    between atoms: _190  and  _192
REMARK   80  A    between atoms: _192  and  _193
REMARK   81  A    between atoms: _195  and  _197
REMARK   82  A    between atoms: _197  and  _198
REMARK   83  A    between atoms: _197  and  _200
REMARK   84  A    between atoms: _200  and  _201
REMARK   85  A    between atoms: _204  and  _206
REMARK   86  A    between atoms: _206  and  _207
REMARK   87  A    between atoms: _209  and  _211
REMARK   88  A    between atoms: _211  and  _212
REMARK   89  A    between atoms: _211  and  _214
REMARK   90  A    between atoms: _214  and  _215
REMARK   91  A    between atoms: _217  and  _219
REMARK   92  A    between atoms: _219  and  _220
REMARK   93  A    between atoms: _219  and  _222
REMARK   94  A    between atoms: _222  and  _223
REMARK   95  A    between atoms: _225  and  _227
REMARK   96  A    between atoms: _227  and  _228
REMARK   97  A    between atoms: _227  and  _230
REMARK   98  A    between atoms: _230  and  _231
REMARK   99  A    between atoms: _233  and  _235
REMARK  100  A    between atoms: _235  and  _236
REMARK  101  A    between atoms: _235  and  _238
REMARK  102  A    between atoms: _238  and  _239
REMARK  103  A    between atoms: _245  and  _247
REMARK  104  A    between atoms: _247  and  _248
REMARK  105  A    between atoms: _247  and  _250
REMARK  106  A    between atoms: _250  and  _251
REMARK  107  A    between atoms: _251  and  _252
REMARK  108  A    between atoms: _255  and  _257
REMARK  109  A    between atoms: _257  and  _258
REMARK  110  A    between atoms: _257  and  _260
REMARK  111  A    between atoms: _260  and  _261
REMARK  112  A    between atoms: _264  and  _266
REMARK  113  A    between atoms: _266  and  _267
REMARK  114  A    between atoms: _266  and  _269
REMARK  115  A    between atoms: _269  and  _270
REMARK  116  A    between atoms: _272  and  _274
REMARK  117  A    between atoms: _274  and  _275
REMARK  118  A    between atoms: _274  and  _277
REMARK  119  A    between atoms: _277  and  _278
REMARK  120  A    between atoms: _281  and  _283
REMARK  121  A    between atoms: _283  and  _284
REMARK  122  A    between atoms: _283  and  _286
REMARK  123  A    between atoms: _286  and  _287
REMARK  124  A    between atoms: _290  and  _292
REMARK  125  A    between atoms: _292  and  _293
REMARK  126  A    between atoms: _295  and  _297
REMARK  127  A    between atoms: _297  and  _298
REMARK  128  A    between atoms: _297  and  _300
REMARK  129  A    between atoms: _300  and  _301
REMARK  130  A    between atoms: _304  and  _306
REMARK  131  A    between atoms: _306  and  _307
REMARK  132  A    between atoms: _306  and  _309
REMARK  133  A    between atoms: _309  and  _310
REMARK  134  A    between atoms: _313  and  _315
REMARK  135  A    between atoms: _315  and  _316
REMARK  136  A    between atoms: _315  and  _318
REMARK  137  A    between atoms: _318  and  _319
REMARK  138  A    between atoms: _322  and  _324
REMARK  139  A    between atoms: _324  and  _325
REMARK  140  A    between atoms: _328  and  _330
REMARK  141  A    between atoms: _330  and  _331
REMARK  142  A    between atoms: _330  and  _333
REMARK  143  A    between atoms: _333  and  _334
REMARK  144  A    between atoms: _340  and  _342
REMARK  145  A    between atoms: _342  and  _343
REMARK  146  A    between atoms: _342  and  _345
REMARK  147  A    between atoms: _345  and  _346
REMARK  148  A    between atoms: _349  and  _351
REMARK  149  A    between atoms: _351  and  _352
REMARK  150  A    between atoms: _351  and  _354
REMARK  151  A    between atoms: _354  and  _355
REMARK  152  A    between atoms: _358  and  _360
REMARK  153  A    between atoms: _360  and  _361
REMARK  154  A    between atoms: _360  and  _363
REMARK  155  A    between atoms: _363  and  _364
REMARK  156  A    between atoms: _369  and  _371
REMARK  157  A    between atoms: _371  and  _372
REMARK  158  A    between atoms: _371  and  _374
REMARK  159  A    between atoms: _374  and  _375
REMARK  160  A    between atoms: _378  and  _380
REMARK  161  A    between atoms: _380  and  _381
REMARK  162  A    between atoms: _380  and  _383
REMARK  163  A    between atoms: _383  and  _384
REMARK  164  A    between atoms: _384  and  _385
REMARK  165  A    between atoms: _390  and  _392
REMARK  166  A    between atoms: _392  and  _393
REMARK  167  A    between atoms: _392  and  _395
REMARK  168  A    between atoms: _395  and  _396
REMARK  169  A    between atoms: _396  and  _397
REMARK  170  A    between atoms: _402  and  _404
REMARK  171  A    between atoms: _404  and  _405
REMARK  172  A    between atoms: _407  and  _409
REMARK  173  A    between atoms: _409  and  _410
REMARK  174  A    between atoms: _409  and  _412
REMARK  175  A    between atoms: _412  and  _413
REMARK  176  A    between atoms: _419  and  _421
REMARK  177  A    between atoms: _421  and  _422
REMARK  178  A    between atoms: _421  and  _424
REMARK  179  A    between atoms: _424  and  _425
REMARK  180  A    between atoms: _428  and  _430
REMARK  181  A    between atoms: _430  and  _431
REMARK  182  A    between atoms: _434  and  _436
REMARK  183  A    between atoms: _436  and  _437
REMARK  184  A    between atoms: _436  and  _439
REMARK  185  A    between atoms: _439  and  _440
REMARK  186  A    between atoms: _443  and  _445
REMARK  187  A    between atoms: _445  and  _446
REMARK  188  A    between atoms: _445  and  _448
REMARK  189  A    between atoms: _448  and  _449
REMARK  190  A    between atoms: _452  and  _454
REMARK  191  A    between atoms: _454  and  _455
REMARK  192  A    between atoms: _457  and  _459
REMARK  193  A    between atoms: _459  and  _460
REMARK  194  A    between atoms: _459  and  _462
REMARK  195  A    between atoms: _462  and  _463
REMARK  196  A    between atoms: _466  and  _468
REMARK  197  A    between atoms: _468  and  _469
REMARK  198  A    between atoms: _468  and  _471
REMARK  199  A    between atoms: _471  and  _472
REMARK  200  A    between atoms: _475  and  _477
REMARK  201  A    between atoms: _477  and  _478
REMARK  202  A    between atoms: _477  and  _480
REMARK  203  A    between atoms: _480  and  _481
REMARK  204  A    between atoms: _484  and  _486
REMARK  205  A    between atoms: _486  and  _487
REMARK  206  A    between atoms: _486  and  _489
REMARK  207  A    between atoms: _489  and  _490
REMARK  208  A    between atoms: _495  and  _496
REMARK  209  A    between atoms: _498  and  _500
REMARK  210  A    between atoms: _500  and  _501
REMARK  211  A    between atoms: _500  and  _503
REMARK  212  A    between atoms: _503  and  _504
REMARK  213  A    between atoms: _510  and  _512
REMARK  214  A    between atoms: _512  and  _513
REMARK  215  A    between atoms: _515  and  _517
REMARK  216  A    between atoms: _517  and  _518
REMARK  217  A    between atoms: _517  and  _520
REMARK  218  A    between atoms: _520  and  _521
REMARK  219  A    between atoms: _524  and  _526
REMARK  220  A    between atoms: _526  and  _527
REMARK  221  A    between atoms: _529  and  _531
REMARK  222  A    between atoms: _531  and  _532
REMARK  223  A    between atoms: _531  and  _534
REMARK  224  A    between atoms: _534  and  _535
REMARK  225  A    between atoms: _538  and  _540
REMARK  226  A    between atoms: _540  and  _541
REMARK  227  A    between atoms: _540  and  _543
REMARK  228  A    between atoms: _543  and  _544
REMARK  229  A    between atoms: _549  and  _551
REMARK  230  A    between atoms: _551  and  _552
REMARK  231  A    between atoms: _551  and  _554
REMARK  232  A    between atoms: _554  and  _555
REMARK  233  A    between atoms: _558  and  _560
REMARK  234  A    between atoms: _560  and  _561
REMARK  235  A    between atoms: _563  and  _565
REMARK  236  A    between atoms: _565  and  _566
REMARK  237  A    between atoms: _565  and  _568
REMARK  238  A    between atoms: _568  and  _569
REMARK                            x       y       z     vdW  Elec       q    Type
REMARK                         _______ _______ _______ _____ _____    ______ ____
ROOT
ATOM      1  CB  GLN A   1      12.493   6.130  24.124  0.00  0.00    +0.035 C 
ENDROOT
BRANCH   1   2
ATOM      2  CA  GLN A   1      11.998   4.983  24.998  0.00  0.00    +0.134 C 
BRANCH   2   3
ATOM      3  N   GLN A   1      12.256   5.324  26.385  0.00  0.00    -0.239 NA
ATOM      4  H   GLN A   1      12.701   6.239  26.600  0.00  0.00    +0.142 HD
ENDBRANCH   2   3
BRANCH   2   5
ATOM      5  C   GLN A   1      12.713   3.699  24.598  0.00  0.00    +0.224 C 
ATOM      6  O   GLN A   1      13.823   3.426  25.039  0.00  0.00    -0.287 OA
ENDBRANCH   2   5
ENDBRANCH   1   2
BRANCH   1   7
ATOM      7  CG  GLN A   1      12.107   6.015  22.666  0.00  0.00    +0.087 C 
BRANCH   7   8
ATOM      8  CD  GLN A   1      12.466   7.291  21.936  0.00  0.00    +0.219 C 
ATOM      9  OE1 GLN A   1      13.609   7.694  21.856  0.00  0.00    -0.275 OA
ATOM     10  NE2 GLN A   1      11.434   7.931  21.388  0.00  0.00    -0.329 N 
ATOM     11 HE21 GLN A   1      10.473   7.546  21.484  0.00  0.00    +0.145 HD
ATOM     12 HE22 GLN A   1      11.590   8.816  20.864  0.00  0.00    +0.145 HD
ENDBRANCH   7   8
ENDBRANCH   1   7
TORSDOF 5
REMARK  Name = ../refined-set-2016/3prs/3prs_pocket.pdb
REMARK  238 active torsions:
REMARK  status: ('A' for Active; 'I' for Inactive)
REMARK    1  A    between atoms: _1  and  _3
REMARK    2  A    between atoms: _3  and  _4
REMARK    3  A    between atoms: _3  and  _6
REMARK    4  A    between atoms: _6  and  _7
REMARK    5  A    between atoms: _10  and  _12
REMARK    6  A    between atoms: _12  and  _13
REMARK    7  A    between atoms: _12  and  _15
REMARK    8  A    between atoms: _15  and  _16
REMARK    9  A    between atoms: _19  and  _21
REMARK   10  A    between atoms: _21  and  _22
REMARK   11  A    between atoms: _21  and  _24
REMARK   12  A    between atoms: _24  and  _25
REMARK   13  A    between atoms: _28  and  _30
REMARK   14  A    between atoms: _30  and  _31
REMARK   15  A    between atoms: _30  and  _33
REMARK   16  A    between atoms: _33  and  _34
REMARK   17  A    between atoms: _37  and  _39
REMARK   18  A    between atoms: _39  and  _40
REMARK   19  A    between atoms: _39  and  _42
REMARK   20  A    between atoms: _42  and  _43
REMARK   21  A    between atoms: _46  and  _48
REMARK   22  A    between atoms: _48  and  _49
REMARK   23  A    between atoms: _52  and  _54
REMARK   24  A    between atoms: _54  and  _55
REMARK   25  A    between atoms: _54  and  _57
REMARK   26  A    between atoms: _57  and  _58
REMARK   27  A    between atoms: _63  and  _64
REMARK   28  A    between atoms: _66  and  _68
REMARK   29  A    between atoms: _68  and  _69
REMARK   30  A    between atoms: _68  and  _71
REMARK   31  A    between atoms: _71  and  _72
REMARK   32  A    between atoms: _75  and  _77
REMARK   33  A    between atoms: _77  and  _78
REMARK   34  A    between atoms: _77  and  _80
REMARK   35  A    between atoms: _80  and  _81
REMARK   36  A    between atoms: _87  and  _89
REMARK   37  A    between atoms: _89  and  _90
REMARK   38  A    between atoms: _89  and  _92
REMARK   39  A    between atoms: _92  and  _93
REMARK   40  A    between atoms: _96  and  _98
REMARK   41  A    between atoms: _98  and  _99
REMARK   42  A    between atoms: _98  and  _101
REMARK   43  A    between atoms: _101  and  _102
REMARK   44  A    between atoms: _105  and  _107
REMARK   45  A    between atoms: _107  and  _108
REMARK   46  A    between atoms: _110  and  _112
REMARK   47  A    between atoms: _112  and  _113
REMARK   48  A    between atoms: _112  and  _115
REMARK   49  A    between atoms: _115  and  _116
REMARK   50  A    between atoms: _118  and  _120
REMARK   51  A    between atoms: _120  and  _121
REMARK   52  A    between atoms: _120  and  _123
REMARK   53  A    between atoms: _123  and  _124
REMARK   54  A    between atoms: _126  and  _128
REMARK   55  A    between atoms: _128  and  _129
REMARK   56  A    between atoms: _128  and  _131
REMARK   57  A    between atoms: _131  and  _132
REMARK   58  A    between atoms: _135  and  _137
REMARK   59  A    between atoms: _137  and  _138
REMARK   60  A    between atoms: _137  and  _140
REMARK   61  A    between atoms: _140  and  _141
REMARK   62  A    between atoms: _151  and  _153
REMARK   63  A    between atoms: _153  and  _154
REMARK   64  A    between atoms: _153  and  _156
REMARK   65  A    between atoms: _156  and  _157
REMARK   66  A    between atoms: _159  and  _161
REMARK   67  A    between atoms: _161  and  _162
REMARK   68  A    between atoms: _161  and  _164
REMARK   69  A    between atoms: _164  and  _165
REMARK   70  A    between atoms: _168  and  _170
REMARK   71  A    between atoms: _170  and  _171
REMARK   72  A    between atoms: _170  and  _173
REMARK   73  A    between atoms: _173  and  _174
REMARK   74  A    between atoms: _176  and  _178
REMARK   75  A    between atoms: _178  and  _179
REMARK   76  A    between atoms: _178  and  _181
REMARK   77  A    between atoms: _181  and  _182
REMARK   78  A    between atoms: _187  and  _188
REMARK   79  A    between atoms: _190  and  _192
REMARK   80  A    between atoms: _192  and  _193
REMARK   81  A    between atoms: _195  and  _197
REMARK   82  A    between atoms: _197  and  _198
REMARK   83  A    between atoms: _197  and  _200
REMARK   84  A    between atoms: _200  and  _201
REMARK   85  A    between atoms: _204  and  _206
REMARK   86  A    between atoms: _206  and  _207
REMARK   87  A    between atoms: _209  and  _211
REMARK   88  A    between atoms: _211  and  _212
REMARK   89  A    between atoms: _211  and  _214
REMARK   90  A    between atoms: _214  and  _215
REMARK   91  A    between atoms: _217  and  _219
REMARK   92  A    between atoms: _219  and  _220
REMARK   93  A    between atoms: _219  and  _222
REMARK   94  A    between atoms: _222  and  _223
REMARK   95  A    between atoms: _225  and  _227
REMARK   96  A    between atoms: _227  and  _228
REMARK   97  A    between atoms: _227  and  _230
REMARK   98  A    between atoms: _230  and  _231
REMARK   99  A    between atoms: _233  and  _235
REMARK  100  A    between atoms: _235  and  _236
REMARK  101  A    between atoms: _235  and  _238
REMARK  102  A    between atoms: _238  and  _239
REMARK  103  A    between atoms: _245  and  _247
REMARK  104  A    between atoms: _247  and  _248
REMARK  105  A    between atoms: _247  and  _250
REMARK  106  A    between atoms: _250  and  _251
REMARK  107  A    between atoms: _251  and  _252
REMARK  108  A    between atoms: _255  and  _257
REMARK  109  A    between atoms: _257  and  _258
REMARK  110  A    between atoms: _257  and  _260
REMARK  111  A    between atoms: _260  and  _261
REMARK  112  A    between atoms: _264  and  _266
REMARK  113  A    between atoms: _266  and  _267
REMARK  114  A    between atoms: _266  and  _269
REMARK  115  A    between atoms: _269  and  _270
REMARK  116  A    between atoms: _272  and  _274
REMARK  117  A    between atoms: _274  and  _275
REMARK  118  A    between atoms: _274  and  _277
REMARK  119  A    between atoms: _277  and  _278
REMARK  120  A    between atoms: _281  and  _283
REMARK  121  A    between atoms: _283  and  _284
REMARK  122  A    between atoms: _283  and  _286
REMARK  123  A    between atoms: _286  and  _287
REMARK  124  A    between atoms: _290  and  _292
REMARK  125  A    between atoms: _292  and  _293
REMARK  126  A    between atoms: _295  and  _297
REMARK  127  A    between atoms: _297  and  _298
REMARK  128  A    between atoms: _297  and  _300
REMARK  129  A    between atoms: _300  and  _301
REMARK  130  A    between atoms: _304  and  _306
REMARK  131  A    between atoms: _306  and  _307
REMARK  132  A    between atoms: _306  and  _309
REMARK  133  A    between atoms: _309  and  _310
REMARK  134  A    between atoms: _313  and  _315
REMARK  135  A    between atoms: _315  and  _316
REMARK  136  A    between atoms: _315  and  _318
REMARK  137  A    between atoms: _318  and  _319
REMARK  138  A    between atoms: _322  and  _324
REMARK  139  A    between atoms: _324  and  _325
REMARK  140  A    between atoms: _328  and  _330
REMARK  141  A    between atoms: _330  and  _331
REMARK  142  A    between atoms: _330  and  _333
REMARK  143  A    between atoms: _333  and  _334
REMARK  144  A    between atoms: _340  and  _342
REMARK  145  A    between atoms: _342  and  _343
REMARK  146  A    between atoms: _342  and  _345
REMARK  147  A    between atoms: _345  and  _346
REMARK  148  A    between atoms: _349  and  _351
REMARK  149  A    between atoms: _351  and  _352
REMARK  150  A    between atoms: _351  and  _354
REMARK  151  A    between atoms: _354  and  _355
REMARK  152  A    between atoms: _358  and  _360
REMARK  153  A    between atoms: _360  and  _361
REMARK  154  A    between atoms: _360  and  _363
REMARK  155  A    between atoms: _363  and  _364
REMARK  156  A    between atoms: _369  and  _371
REMARK  157  A    between atoms: _371  and  _372
REMARK  158  A    between atoms: _371  and  _374
REMARK  159  A    between atoms: _374  and  _375
REMARK  160  A    between atoms: _378  and  _380
REMARK  161  A    between atoms: _380  and  _381
REMARK  162  A    between atoms: _380  and  _383
REMARK  163  A    between atoms: _383  and  _384
REMARK  164  A    between atoms: _384  and  _385
REMARK  165  A    between atoms: _390  and  _392
REMARK  166  A    between atoms: _392  and  _393
REMARK  167  A    between atoms: _392  and  _395
REMARK  168  A    between atoms: _395  and  _396
REMARK  169  A    between atoms: _396  and  _397
REMARK  170  A    between atoms: _402  and  _404
REMARK  171  A    between atoms: _404  and  _405
REMARK  172  A    between atoms: _407  and  _409
REMARK  173  A    between atoms: _409  and  _410
REMARK  174  A    between atoms: _409  and  _412
REMARK  175  A    between atoms: _412  and  _413
REMARK  176  A    between atoms: _419  and  _421
REMARK  177  A    between atoms: _421  and  _422
REMARK  178  A    between atoms: _421  and  _424
REMARK  179  A    between atoms: _424  and  _425
REMARK  180  A    between atoms: _428  and  _430
REMARK  181  A    between atoms: _430  and  _431
REMARK  182  A    between atoms: _434  and  _436
REMARK  183  A    between atoms: _436  and  _437
REMARK  184  A    between atoms: _436  and  _439
REMARK  185  A    between atoms: _439  and  _440
REMARK  186  A    between atoms: _443  and  _445
REMARK  187  A    between atoms: _445  and  _446
REMARK  188  A    between atoms: _445  and  _448
REMARK  189  A    between atoms: _448  and  _449
REMARK  190  A    between atoms: _452  and  _454
REMARK  191  A    between atoms: _454  and  _455
REMARK  192  A    between atoms: _457  and  _459
REMARK  193  A    between atoms: _459  and  _460
REMARK  194  A    between atoms: _459  and  _462
REMARK  195  A    between atoms: _462  and  _463
REMARK  196  A    between atoms: _466  and  _468
REMARK  197  A    between atoms: _468  and  _469
REMARK  198  A    between atoms: _468  and  _471
REMARK  199  A    between atoms: _471  and  _472
REMARK  200  A    between atoms: _475  and  _477
REMARK  201  A    between atoms: _477  and  _478
REMARK  202  A    between atoms: _477  and  _480
REMARK  203  A    between atoms: _480  and  _481
REMARK  204  A    between atoms: _484  and  _486
REMARK  205  A    between atoms: _486  and  _487
REMARK  206  A    between atoms: _486  and  _489
REMARK  207  A    between atoms: _489  and  _490
REMARK  208  A    between atoms: _495  and  _496
REMARK  209  A    between atoms: _498  and  _500
REMARK  210  A    between atoms: _500  and  _501
REMARK  211  A    between atoms: _500  and  _503
REMARK  212  A    between atoms: _503  and  _504
REMARK  213  A    between atoms: _510  and  _512
REMARK  214  A    between atoms: _512  and  _513
REMARK  215  A    between atoms: _515  and  _517
REMARK  216  A    between atoms: _517  and  _518
REMARK  217  A    between atoms: _517  and  _520
REMARK  218  A    between atoms: _520  and  _521
REMARK  219  A    between atoms: _524  and  _526
REMARK  220  A    between atoms: _526  and  _527
REMARK  221  A    between atoms: _529  and  _531
REMARK  222  A    between atoms: _531  and  _532
REMARK  223  A    between atoms: _531  and  _534
REMARK  224  A    between atoms: _534  and  _535
REMARK  225  A    between atoms: _538  and  _540
REMARK  226  A    between atoms: _540  and  _541
REMARK  227  A    between atoms: _540  and  _543
REMARK  228  A    between atoms: _543  and  _544
REMARK  229  A    between atoms: _549  and  _551
REMARK  230  A    between atoms: _551  and  _552
REMARK  231  A    between atoms: _551  and  _554
REMARK  232  A    between atoms: _554  and  _555
REMARK  233  A    between atoms: _558  and  _560
REMARK  234  A    between atoms: _560  and  _561
REMARK  235  A    between atoms: _563  and  _565
REMARK  236  A    between atoms: _565  and  _566
REMARK  237  A    between atoms: _565  and  _568
REMARK  238  A    between atoms: _568  and  _569
REMARK                            x       y       z     vdW  Elec       q    Type
REMARK                         _______ _______ _______ _____ _____    ______ ____
ROOT
ATOM      1  CA  GLY A   2      11.984   9.825  12.513  0.00  0.00    +0.176 C 
ENDROOT
BRANCH   1   4
ATOM      2  C   GLN A   1      11.045  12.067  12.151  0.00  0.00    +0.238 C 
ATOM      3  O   GLN A   1       9.919  11.726  12.558  0.00  0.00    -0.274 OA
ATOM      4  N   GLY A   2      12.094  11.211  12.087  0.00  0.00    -0.296 N 
ATOM      5  H   GLY A   2      13.005  11.556  11.722  0.00  0.00    +0.150 HD
BRANCH   2   6
ATOM      6  CA  GLN A   1      11.278  13.496  11.667  0.00  0.00    +0.145 C 
BRANCH   6   7
ATOM      7  N   GLN A   1      12.649  13.692  11.139  0.00  0.00    -0.238 NA
ATOM      8  H   GLN A   1      12.886  13.368  10.180  0.00  0.00    +0.142 HD
ENDBRANCH   6   7
BRANCH   6   9
ATOM      9  CB  GLN A   1      10.229  13.878  10.612  0.00  0.00    +0.036 C 
BRANCH   9  10
ATOM     10  CG  GLN A   1      10.310  15.339  10.230  0.00  0.00    +0.087 C 
BRANCH  10  11
ATOM     11  CD  GLN A   1       9.124  15.819   9.439  0.00  0.00    +0.219 C 
ATOM     12  OE1 GLN A   1       8.268  16.465  10.036  0.00  0.00    -0.275 OA
ATOM     13  NE2 GLN A   1       9.066  15.530   8.135  0.00  0.00    -0.329 N 
ATOM     14 HE21 GLN A   1       9.827  14.977   7.691  0.00  0.00    +0.145 HD
ATOM     15 HE22 GLN A   1       8.260  15.858   7.565  0.00  0.00    +0.145 HD
ENDBRANCH  10  11
ENDBRANCH   9  10
ENDBRANCH   6   9
ENDBRANCH   2   6
ENDBRANCH   1   4
BRANCH   1  16
ATOM     16  C   GLY A   2      11.518   8.843  11.467  0.00  0.00    +0.243 C 
ATOM     17  O   GLY A   2      11.372   7.660  11.797  0.00  0.00    -0.273 OA
ATOM     18  N   PHE A   3      11.307   9.308  10.258  0.00  0.00    -0.298 N 
ATOM     19  H   PHE A   3      11.489  10.314  10.068  0.00  0.00    +0.150 HD
BRANCH  18  20
ATOM     20  CA  PHE A   3      10.821   8.452   9.160  0.00  0.00    +0.141 C 
BRANCH  20  21
ATOM     21  C   PHE A   3      11.897   8.181   8.142  0.00  0.00    +0.227 C 
ATOM     22  O   PHE A   3      12.936   8.846   8.120  0.00  0.00    -0.286 OA
ENDBRANCH  20  21
BRANCH  20  23
ATOM     23  CB  PHE A   3       9.651   9.143   8.445  0.00  0.00    +0.054 C 
BRANCH  23  24
ATOM     24  CG  PHE A   3       8.467   9.452   9.356  0.00  0.00    -0.020 A 
ATOM     25  CD2 PHE A   3       7.684   8.431   9.818  0.00  0.00    -0.004 A 
ATOM     26  CE2 PHE A   3       6.597   8.663  10.665  0.00  0.00    -0.000 A 
ATOM     27  CZ  PHE A   3       6.331   9.956  11.027  0.00  0.00    -0.000 A 
ATOM     28  CE1 PHE A   3       7.104  10.982  10.532  0.00  0.00    -0.000 A 
ATOM     29  CD1 PHE A   3       8.183  10.761   9.717  0.00  0.00    -0.004 A 
ENDBRANCH  23  24
ENDBRANCH  20  23
ENDBRANCH  18  20
ENDBRANCH   1  16
TORSDOF 11
REMARK  Name = ../refined-set-2016/3prs/3prs_pocket.pdb
REMARK  238 active torsions:
REMARK  status: ('A' for Active; 'I' for Inactive)
REMARK    1  A    between atoms: _1  and  _3
REMARK    2  A    between atoms: _3  and  _4
REMARK    3  A    between atoms: _3  and  _6
REMARK    4  A    between atoms: _6  and  _7
REMARK    5  A    between atoms: _10  and  _12
REMARK    6  A    between atoms: _12  and  _13
REMARK    7  A    between atoms: _12  and  _15
REMARK    8  A    between atoms: _15  and  _16
REMARK    9  A    between atoms: _19  and  _21
REMARK   10  A    between atoms: _21  and  _22
REMARK   11  A    between atoms: _21  and  _24
REMARK   12  A    between atoms: _24  and  _25
REMARK   13  A    between atoms: _28  and  _30
REMARK   14  A    between atoms: _30  and  _31
REMARK   15  A    between atoms: _30  and  _33
REMARK   16  A    between atoms: _33  and  _34
REMARK   17  A    between atoms: _37  and  _39
REMARK   18  A    between atoms: _39  and  _40
REMARK   19  A    between atoms: _39  and  _42
REMARK   20  A    between atoms: _42  and  _43
REMARK   21  A    between atoms: _46  and  _48
REMARK   22  A    between atoms: _48  and  _49
REMARK   23  A    between atoms: _52  and  _54
REMARK   24  A    between atoms: _54  and  _55
REMARK   25  A    between atoms: _54  and  _57
REMARK   26  A    between atoms: _57  and  _58
REMARK   27  A    between atoms: _63  and  _64
REMARK   28  A    between atoms: _66  and  _68
REMARK   29  A    between atoms: _68  and  _69
REMARK   30  A    between atoms: _68  and  _71
REMARK   31  A    between atoms: _71  and  _72
REMARK   32  A    between atoms: _75  and  _77
REMARK   33  A    between atoms: _77  and  _78
REMARK   34  A    between atoms: _77  and  _80
REMARK   35  A    between atoms: _80  and  _81
REMARK   36  A    between atoms: _87  and  _89
REMARK   37  A    between atoms: _89  and  _90
REMARK   38  A    between atoms: _89  and  _92
REMARK   39  A    between atoms: _92  and  _93
REMARK   40  A    between atoms: _96  and  _98
REMARK   41  A    between atoms: _98  and  _99
REMARK   42  A    between atoms: _98  and  _101
REMARK   43  A    between atoms: _101  and  _102
REMARK   44  A    between atoms: _105  and  _107
REMARK   45  A    between atoms: _107  and  _108
REMARK   46  A    between atoms: _110  and  _112
REMARK   47  A    between atoms: _112  and  _113
REMARK   48  A    between atoms: _112  and  _115
REMARK   49  A    between atoms: _115  and  _116
REMARK   50  A    between atoms: _118  and  _120
REMARK   51  A    between atoms: _120  and  _121
REMARK   52  A    between atoms: _120  and  _123
REMARK   53  A    between atoms: _123  and  _124
REMARK   54  A    between atoms: _126  and  _128
REMARK   55  A    between atoms: _128  and  _129
REMARK   56  A    between atoms: _128  and  _131
REMARK   57  A    between atoms: _131  and  _132
REMARK   58  A    between atoms: _135  and  _137
REMARK   59  A    between atoms: _137  and  _138
REMARK   60  A    between atoms: _137  and  _140
REMARK   61  A    between atoms: _140  and  _141
REMARK   62  A    between atoms: _151  and  _153
REMARK   63  A    between atoms: _153  and  _154
REMARK   64  A    between atoms: _153  and  _156
REMARK   65  A    between atoms: _156  and  _157
REMARK   66  A    between atoms: _159  and  _161
REMARK   67  A    between atoms: _161  and  _162
REMARK   68  A    between atoms: _161  and  _164
REMARK   69  A    between atoms: _164  and  _165
REMARK   70  A    between atoms: _168  and  _170
REMARK   71  A    between atoms: _170  and  _171
REMARK   72  A    between atoms: _170  and  _173
REMARK   73  A    between atoms: _173  and  _174
REMARK   74  A    between atoms: _176  and  _178
REMARK   75  A    between atoms: _178  and  _179
REMARK   76  A    between atoms: _178  and  _181
REMARK   77  A    between atoms: _181  and  _182
REMARK   78  A    between atoms: _187  and  _188
REMARK   79  A    between atoms: _190  and  _192
REMARK   80  A    between atoms: _192  and  _193
REMARK   81  A    between atoms: _195  and  _197
REMARK   82  A    between atoms: _197  and  _198
REMARK   83  A    between atoms: _197  and  _200
REMARK   84  A    between atoms: _200  and  _201
REMARK   85  A    between atoms: _204  and  _206
REMARK   86  A    between atoms: _206  and  _207
REMARK   87  A    between atoms: _209  and  _211
REMARK   88  A    between atoms: _211  and  _212
REMARK   89  A    between atoms: _211  and  _214
REMARK   90  A    between atoms: _214  and  _215
REMARK   91  A    between atoms: _217  and  _219
REMARK   92  A    between atoms: _219  and  _220
REMARK   93  A    between atoms: _219  and  _222
REMARK   94  A    between atoms: _222  and  _223
REMARK   95  A    between atoms: _225  and  _227
REMARK   96  A    between atoms: _227  and  _228
REMARK   97  A    between atoms: _227  and  _230
REMARK   98  A    between atoms: _230  and  _231
REMARK   99  A    between atoms: _233  and  _235
REMARK  100  A    between atoms: _235  and  _236
REMARK  101  A    between atoms: _235  and  _238
REMARK  102  A    between atoms: _238  and  _239
REMARK  103  A    between atoms: _245  and  _247
REMARK  104  A    between atoms: _247  and  _248
REMARK  105  A    between atoms: _247  and  _250
REMARK  106  A    between atoms: _250  and  _251
REMARK  107  A    between atoms: _251  and  _252
REMARK  108  A    between atoms: _255  and  _257
REMARK  109  A    between atoms: _257  and  _258
REMARK  110  A    between atoms: _257  and  _260
REMARK  111  A    between atoms: _260  and  _261
REMARK  112  A    between atoms: _264  and  _266
REMARK  113  A    between atoms: _266  and  _267
REMARK  114  A    between atoms: _266  and  _269
REMARK  115  A    between atoms: _269  and  _270
REMARK  116  A    between atoms: _272  and  _274
REMARK  117  A    between atoms: _274  and  _275
REMARK  118  A    between atoms: _274  and  _277
REMARK  119  A    between atoms: _277  and  _278
REMARK  120  A    between atoms: _281  and  _283
REMARK  121  A    between atoms: _283  and  _284
REMARK  122  A    between atoms: _283  and  _286
REMARK  123  A    between atoms: _286  and  _287
REMARK  124  A    between atoms: _290  and  _292
REMARK  125  A    between atoms: _292  and  _293
REMARK  126  A    between atoms: _295  and  _297
REMARK  127  A    between atoms: _297  and  _298
REMARK  128  A    between atoms: _297  and  _300
REMARK  129  A    between atoms: _300  and  _301
REMARK  130  A    between atoms: _304  and  _306
REMARK  131  A    between atoms: _306  and  _307
REMARK  132  A    between atoms: _306  and  _309
REMARK  133  A    between atoms: _309  and  _310
REMARK  134  A    between atoms: _313  and  _315
REMARK  135  A    between atoms: _315  and  _316
REMARK  136  A    between atoms: _315  and  _318
REMARK  137  A    between atoms: _318  and  _319
REMARK  138  A    between atoms: _322  and  _324
REMARK  139  A    between atoms: _324  and  _325
REMARK  140  A    between atoms: _328  and  _330
REMARK  141  A    between atoms: _330  and  _331
REMARK  142  A    between atoms: _330  and  _333
REMARK  143  A    between atoms: _333  and  _334
REMARK  144  A    between atoms: _340  and  _342
REMARK  145  A    between atoms: _342  and  _343
REMARK  146  A    between atoms: _342  and  _345
REMARK  147  A    between atoms: _345  and  _346
REMARK  148  A    between atoms: _349  and  _351
REMARK  149  A    between atoms: _351  and  _352
REMARK  150  A    between atoms: _351  and  _354
REMARK  151  A    between atoms: _354  and  _355
REMARK  152  A    between atoms: _358  and  _360
REMARK  153  A    between atoms: _360  and  _361
REMARK  154  A    between atoms: _360  and  _363
REMARK  155  A    between atoms: _363  and  _364
REMARK  156  A    between atoms: _369  and  _371
REMARK  157  A    between atoms: _371  and  _372
REMARK  158  A    between atoms: _371  and  _374
REMARK  159  A    between atoms: _374  and  _375
REMARK  160  A    between atoms: _378  and  _380
REMARK  161  A    between atoms: _380  and  _381
REMARK  162  A    between atoms: _380  and  _383
REMARK  163  A    between atoms: _383  and  _384
REMARK  164  A    between atoms: _384  and  _385
REMARK  165  A    between atoms: _390  and  _392
REMARK  166  A    between atoms: _392  and  _393
REMARK  167  A    between atoms: _392  and  _395
REMARK  168  A    between atoms: _395  and  _396
REMARK  169  A    between atoms: _396  and  _397
REMARK  170  A    between atoms: _402  and  _404
REMARK  171  A    between atoms: _404  and  _405
REMARK  172  A    between atoms: _407  and  _409
REMARK  173  A    between atoms: _409  and  _410
REMARK  174  A    between atoms: _409  and  _412
REMARK  175  A    between atoms: _412  and  _413
REMARK  176  A    between atoms: _419  and  _421
REMARK  177  A    between atoms: _421  and  _422
REMARK  178  A    between atoms: _421  and  _424
REMARK  179  A    between atoms: _424  and  _425
REMARK  180  A    between atoms: _428  and  _430
REMARK  181  A    between atoms: _430  and  _431
REMARK  182  A    between atoms: _434  and  _436
REMARK  183  A    between atoms: _436  and  _437
REMARK  184  A    between atoms: _436  and  _439
REMARK  185  A    between atoms: _439  and  _440
REMARK  186  A    between atoms: _443  and  _445
REMARK  187  A    between atoms: _445  and  _446
REMARK  188  A    between atoms: _445  and  _448
REMARK  189  A    between atoms: _448  and  _449
REMARK  190  A    between atoms: _452  and  _454
REMARK  191  A    between atoms: _454  and  _455
REMARK  192  A    between atoms: _457  and  _459
REMARK  193  A    between atoms: _459  and  _460
REMARK  194  A    between atoms: _459  and  _462
REMARK  195  A    between atoms: _462  and  _463
REMARK  196  A    between atoms: _466  and  _468
REMARK  197  A    between atoms: _468  and  _469
REMARK  198  A    between atoms: _468  and  _471
REMARK  199  A    between atoms: _471  and  _472
REMARK  200  A    between atoms: _475  and  _477
REMARK  201  A    between atoms: _477  and  _478
REMARK  202  A    between atoms: _477  and  _480
REMARK  203  A    between atoms: _480  and  _481
REMARK  204  A    between atoms: _484  and  _486
REMARK  205  A    between atoms: _486  and  _487
REMARK  206  A    between atoms: _486  and  _489
REMARK  207  A    between atoms: _489  and  _490
REMARK  208  A    between atoms: _495  and  _496
REMARK  209  A    between atoms: _498  and  _500
REMARK  210  A    between atoms: _500  and  _501
REMARK  211  A    between atoms: _500  and  _503
REMARK  212  A    between atoms: _503  and  _504
REMARK  213  A    between atoms: _510  and  _512
REMARK  214  A    between atoms: _512  and  _513
REMARK  215  A    between atoms: _515  and  _517
REMARK  216  A    between atoms: _517  and  _518
REMARK  217  A    between atoms: _517  and  _520
REMARK  218  A    between atoms: _520  and  _521
REMARK  219  A    between atoms: _524  and  _526
REMARK  220  A    between atoms: _526  and  _527
REMARK  221  A    between atoms: _529  and  _531
REMARK  222  A    between atoms: _531  and  _532
REMARK  223  A    between atoms: _531  and  _534
REMARK  224  A    between atoms: _534  and  _535
REMARK  225  A    between atoms: _538  and  _540
REMARK  226  A    between atoms: _540  and  _541
REMARK  227  A    between atoms: _540  and  _543
REMARK  228  A    between atoms: _543  and  _544
REMARK  229  A    between atoms: _549  and  _551
REMARK  230  A    between atoms: _551  and  _552
REMARK  231  A    between atoms: _551  and  _554
REMARK  232  A    between atoms: _554  and  _555
REMARK  233  A    between atoms: _558  and  _560
REMARK  234  A    between atoms: _560  and  _561
REMARK  235  A    between atoms: _563  and  _565
REMARK  236  A    between atoms: _565  and  _566
REMARK  237  A    between atoms: _565  and  _568
REMARK  238  A    between atoms: _568  and  _569
REMARK                            x       y       z     vdW  Elec       q    Type
REMARK                         _______ _______ _______ _____ _____    ______ ____
ROOT
ATOM      1  C   THR A   4       3.332  -0.106   5.074  0.00  0.00    +0.243 C 
ATOM      2  N   GLY A   5       3.108   0.698   6.110  0.00  0.00    -0.295 N 
ATOM      3  H   GLY A   5       3.829   1.401   6.369  0.00  0.00    +0.150 HD
ATOM      4  O   THR A   4       2.540  -0.946   4.673  0.00  0.00    -0.273 OA
ENDROOT
BRANCH   2   5
ATOM      5  CA  GLY A   5       1.887   0.621   6.888  0.00  0.00    +0.176 C 
BRANCH   5   6
ATOM      6  C   GLY A   5       0.734   1.489   6.394  0.00  0.00    +0.243 C 
ATOM      7  O   GLY A   5      -0.263   1.606   7.100  0.00  0.00    -0.273 OA
ATOM      8  N   THR A   6       0.834   2.065   5.217  0.00  0.00    -0.295 N 
ATOM      9  H   THR A   6       1.749   1.987   4.728  0.00  0.00    +0.150 HD
BRANCH   8  10
ATOM     10  CA  THR A   6      -0.216   2.799   4.539  0.00  0.00    +0.176 C 
BRANCH  10  11
ATOM     11  C   THR A   6      -0.469   2.173   3.182  0.00  0.00    +0.243 C 
ATOM     12  N   THR A   7      -1.740   2.009   2.836  0.00  0.00    -0.295 N 
ATOM     13  H   THR A   7      -2.497   2.391   3.439  0.00  0.00    +0.150 HD
ATOM     14  O   THR A   6       0.434   1.843   2.445  0.00  0.00    -0.273 OA
BRANCH  12  15
ATOM     15  CA  THR A   7      -2.071   1.301   1.624  0.00  0.00    +0.176 C 
BRANCH  15  16
ATOM     16  C   THR A   7      -1.766   2.090   0.368  0.00  0.00    +0.243 C 
ATOM     17  N   LEU A   8      -2.161   3.359   0.367  0.00  0.00    -0.298 N 
ATOM     18  H   LEU A   8      -2.455   3.805   1.259  0.00  0.00    +0.150 HD
ATOM     19  O   THR A   7      -1.222   1.551  -0.584  0.00  0.00    -0.273 OA
BRANCH  17  20
ATOM     20  CA  LEU A   8      -2.188   4.145  -0.882  0.00  0.00    +0.137 C 
BRANCH  20  21
ATOM     21  C   LEU A   8      -0.986   5.065  -1.034  0.00  0.00    +0.227 C 
ATOM     22  O   LEU A   8      -0.127   5.190  -0.152  0.00  0.00    -0.286 OA
ENDBRANCH  20  21
BRANCH  20  23
ATOM     23  CB  LEU A   8      -3.499   4.921  -0.979  0.00  0.00    +0.028 C 
BRANCH  23  24
ATOM     24  CG  LEU A   8      -4.795   4.095  -0.796  0.00  0.00    +0.002 C 
ATOM     25  CD2 LEU A   8      -5.976   5.026  -1.070  0.00  0.00    +0.000 C 
ATOM     26  CD1 LEU A   8      -4.780   2.858  -1.687  0.00  0.00    +0.000 C 
ENDBRANCH  23  24
ENDBRANCH  20  23
ENDBRANCH  17  20
ENDBRANCH  15  16
BRANCH  15  27
ATOM     27  CB  THR A   7      -3.575   1.001   1.564  0.00  0.00    +0.137 C 
ATOM     28  CG2 THR A   7      -3.868  -0.039   0.482  0.00  0.00    +0.034 C 
BRANCH  27  29
ATOM     29  OG1 THR A   7      -4.073   0.477   2.800  0.00  0.00    -0.382 OA
ATOM     30  HG1 THR A   7      -3.600  -0.366   3.015  0.00  0.00    +0.210 HD
ENDBRANCH  27  29
ENDBRANCH  15  27
ENDBRANCH  12  15
ENDBRANCH  10  11
BRANCH  10  31
ATOM     31  CB  THR A   6       0.200   4.267   4.366  0.00  0.00    +0.137 C 
ATOM     32  CG2 THR A   6      -0.753   5.041   3.481  0.00  0.00    +0.034 C 
BRANCH  31  33
ATOM     33  OG1 THR A   6       0.162   4.916   5.650  0.00  0.00    -0.382 OA
ATOM     34  HG1 THR A   6       0.788   4.461   6.267  0.00  0.00    +0.210 HD
ENDBRANCH  31  33
ENDBRANCH  10  31
ENDBRANCH   8  10
ENDBRANCH   5   6
ENDBRANCH   2   5
BRANCH   1  35
ATOM     35  CA  THR A   4       4.656   0.027   4.317  0.00  0.00    +0.176 C 
BRANCH  35  37
ATOM     36  C   ASP A   3       4.820   2.451   4.155  0.00  0.00    +0.241 C 
ATOM     37  N   THR A   4       5.347   1.289   4.609  0.00  0.00    -0.295 N 
ATOM     38  H   THR A   4       6.230   1.291   5.158  0.00  0.00    +0.150 HD
ATOM     39  O   ASP A   3       3.776   2.492   3.535  0.00  0.00    -0.273 OA
BRANCH  36  40
ATOM     40  CA  ASP A   3       5.615   3.724   4.449  0.00  0.00    +0.160 C 
BRANCH  40  43
ATOM     41  C   ALA A   2       7.790   4.462   3.567  0.00  0.00    +0.241 C 
ATOM     42  O   ALA A   2       8.401   4.289   4.645  0.00  0.00    -0.273 OA
ATOM     43  N   ASP A   3       6.533   4.079   3.379  0.00  0.00    -0.297 N 
ATOM     44  H   ASP A   3       6.182   4.030   2.401  0.00  0.00    +0.150 HD
BRANCH  41  45
ATOM     45  CA  ALA A   2       8.503   5.218   2.434  0.00  0.00    +0.149 C 
ATOM     46  CB  ALA A   2       9.817   4.604   2.051  0.00  0.00    +0.031 C 
BRANCH  45  48
ATOM     47  C   ILE A   1       7.759   7.510   2.804  0.00  0.00    +0.238 C 
ATOM     48  N   ALA A   2       8.715   6.598   2.871  0.00  0.00    -0.297 N 
ATOM     49  H   ALA A   2       9.646   6.870   3.246  0.00  0.00    +0.150 HD
ATOM     50  O   ILE A   1       6.692   7.316   2.214  0.00  0.00    -0.274 OA
BRANCH  47  51
ATOM     51  CA  ILE A   1       8.037   8.847   3.466  0.00  0.00    +0.145 C 
BRANCH  51  52
ATOM     52  N   ILE A   1       7.517   9.955   2.671  0.00  0.00    -0.238 NA
ATOM     53  H   ILE A   1       6.492  10.107   2.580  0.00  0.00    +0.142 HD
ENDBRANCH  51  52
BRANCH  51  54
ATOM     54  CB  ILE A   1       7.476   8.914   4.900  0.00  0.00    +0.025 C 
ATOM     55  CG2 ILE A   1       7.911  10.201   5.594  0.00  0.00    +0.002 C 
BRANCH  54  56
ATOM     56  CG1 ILE A   1       5.960   8.726   4.996  0.00  0.00    +0.002 C 
ATOM     57  CD1 ILE A   1       5.461   8.582   6.415  0.00  0.00    +0.000 C 
ENDBRANCH  54  56
ENDBRANCH  51  54
ENDBRANCH  47  51
ENDBRANCH  45  48
ENDBRANCH  41  45
ENDBRANCH  40  43
BRANCH  40  58
ATOM     58  CB  ASP A   3       4.684   4.898   4.733  0.00  0.00    +0.143 C 
BRANCH  58  59
ATOM     59  CG  ASP A   3       3.740   4.652   5.886  0.00  0.00    +0.367 C 
ATOM     60  OD2 ASP A   3       3.987   3.718   6.670  0.00  0.00    -0.246 OA
ATOM     61  OD1 ASP A   3       2.768   5.439   5.946  0.00  0.00    -0.246 OA
ENDBRANCH  58  59
ENDBRANCH  40  58
ENDBRANCH  36  40
ENDBRANCH  35  37
BRANCH  35  62
ATOM     62  CB  THR A   4       5.549  -1.169   4.636  0.00  0.00    +0.137 C 
ATOM     63  CG2 THR A   4       6.846  -1.185   3.817  0.00  0.00    +0.034 C 
BRANCH  62  64
ATOM     64  OG1 THR A   4       5.923  -1.130   5.989  0.00  0.00    -0.382 OA
ATOM     65  HG1 THR A   4       5.112  -1.164   6.556  0.00  0.00    +0.210 HD
ENDBRANCH  62  64
ENDBRANCH  35  62
ENDBRANCH   1  35
TORSDOF 28
REMARK  Name = ../refined-set-2016/3prs/3prs_pocket.pdb
REMARK  238 active torsions:
REMARK  status: ('A' for Active; 'I' for Inactive)
REMARK    1  A    between atoms: _1  and  _3
REMARK    2  A    between atoms: _3  and  _4
REMARK    3  A    between atoms: _3  and  _6
REMARK    4  A    between atoms: _6  and  _7
REMARK    5  A    between atoms: _10  and  _12
REMARK    6  A    between atoms: _12  and  _13
REMARK    7  A    between atoms: _12  and  _15
REMARK    8  A    between atoms: _15  and  _16
REMARK    9  A    between atoms: _19  and  _21
REMARK   10  A    between atoms: _21  and  _22
REMARK   11  A    between atoms: _21  and  _24
REMARK   12  A    between atoms: _24  and  _25
REMARK   13  A    between atoms: _28  and  _30
REMARK   14  A    between atoms: _30  and  _31
REMARK   15  A    between atoms: _30  and  _33
REMARK   16  A    between atoms: _33  and  _34
REMARK   17  A    between atoms: _37  and  _39
REMARK   18  A    between atoms: _39  and  _40
REMARK   19  A    between atoms: _39  and  _42
REMARK   20  A    between atoms: _42  and  _43
REMARK   21  A    between atoms: _46  and  _48
REMARK   22  A    between atoms: _48  and  _49
REMARK   23  A    between atoms: _52  and  _54
REMARK   24  A    between atoms: _54  and  _55
REMARK   25  A    between atoms: _54  and  _57
REMARK   26  A    between atoms: _57  and  _58
REMARK   27  A    between atoms: _63  and  _64
REMARK   28  A    between atoms: _66  and  _68
REMARK   29  A    between atoms: _68  and  _69
REMARK   30  A    between atoms: _68  and  _71
REMARK   31  A    between atoms: _71  and  _72
REMARK   32  A    between atoms: _75  and  _77
REMARK   33  A    between atoms: _77  and  _78
REMARK   34  A    between atoms: _77  and  _80
REMARK   35  A    between atoms: _80  and  _81
REMARK   36  A    between atoms: _87  and  _89
REMARK   37  A    between atoms: _89  and  _90
REMARK   38  A    between atoms: _89  and  _92
REMARK   39  A    between atoms: _92  and  _93
REMARK   40  A    between atoms: _96  and  _98
REMARK   41  A    between atoms: _98  and  _99
REMARK   42  A    between atoms: _98  and  _101
REMARK   43  A    between atoms: _101  and  _102
REMARK   44  A    between atoms: _105  and  _107
REMARK   45  A    between atoms: _107  and  _108
REMARK   46  A    between atoms: _110  and  _112
REMARK   47  A    between atoms: _112  and  _113
REMARK   48  A    between atoms: _112  and  _115
REMARK   49  A    between atoms: _115  and  _116
REMARK   50  A    between atoms: _118  and  _120
REMARK   51  A    between atoms: _120  and  _121
REMARK   52  A    between atoms: _120  and  _123
REMARK   53  A    between atoms: _123  and  _124
REMARK   54  A    between atoms: _126  and  _128
REMARK   55  A    between atoms: _128  and  _129
REMARK   56  A    between atoms: _128  and  _131
REMARK   57  A    between atoms: _131  and  _132
REMARK   58  A    between atoms: _135  and  _137
REMARK   59  A    between atoms: _137  and  _138
REMARK   60  A    between atoms: _137  and  _140
REMARK   61  A    between atoms: _140  and  _141
REMARK   62  A    between atoms: _151  and  _153
REMARK   63  A    between atoms: _153  and  _154
REMARK   64  A    between atoms: _153  and  _156
REMARK   65  A    between atoms: _156  and  _157
REMARK   66  A    between atoms: _159  and  _161
REMARK   67  A    between atoms: _161  and  _162
REMARK   68  A    between atoms: _161  and  _164
REMARK   69  A    between atoms: _164  and  _165
REMARK   70  A    between atoms: _168  and  _170
REMARK   71  A    between atoms: _170  and  _171
REMARK   72  A    between atoms: _170  and  _173
REMARK   73  A    between atoms: _173  and  _174
REMARK   74  A    between atoms: _176  and  _178
REMARK   75  A    between atoms: _178  and  _179
REMARK   76  A    between atoms: _178  and  _181
REMARK   77  A    between atoms: _181  and  _182
REMARK   78  A    between atoms: _187  and  _188
REMARK   79  A    between atoms: _190  and  _192
REMARK   80  A    between atoms: _192  and  _193
REMARK   81  A    between atoms: _195  and  _197
REMARK   82  A    between atoms: _197  and  _198
REMARK   83  A    between atoms: _197  and  _200
REMARK   84  A    between atoms: _200  and  _201
REMARK   85  A    between atoms: _204  and  _206
REMARK   86  A    between atoms: _206  and  _207
REMARK   87  A    between atoms: _209  and  _211
REMARK   88  A    between atoms: _211  and  _212
REMARK   89  A    between atoms: _211  and  _214
REMARK   90  A    between atoms: _214  and  _215
REMARK   91  A    between atoms: _217  and  _219
REMARK   92  A    between atoms: _219  and  _220
REMARK   93  A    between atoms: _219  and  _222
REMARK   94  A    between atoms: _222  and  _223
REMARK   95  A    between atoms: _225  and  _227
REMARK   96  A    between atoms: _227  and  _228
REMARK   97  A    between atoms: _227  and  _230
REMARK   98  A    between atoms: _230  and  _231
REMARK   99  A    between atoms: _233  and  _235
REMARK  100  A    between atoms: _235  and  _236
REMARK  101  A    between atoms: _235  and  _238
REMARK  102  A    between atoms: _238  and  _239
REMARK  103  A    between atoms: _245  and  _247
REMARK  104  A    between atoms: _247  and  _248
REMARK  105  A    between atoms: _247  and  _250
REMARK  106  A    between atoms: _250  and  _251
REMARK  107  A    between atoms: _251  and  _252
REMARK  108  A    between atoms: _255  and  _257
REMARK  109  A    between atoms: _257  and  _258
REMARK  110  A    between atoms: _257  and  _260
REMARK  111  A    between atoms: _260  and  _261
REMARK  112  A    between atoms: _264  and  _266
REMARK  113  A    between atoms: _266  and  _267
REMARK  114  A    between atoms: _266  and  _269
REMARK  115  A    between atoms: _269  and  _270
REMARK  116  A    between atoms: _272  and  _274
REMARK  117  A    between atoms: _274  and  _275
REMARK  118  A    between atoms: _274  and  _277
REMARK  119  A    between atoms: _277  and  _278
REMARK  120  A    between atoms: _281  and  _283
REMARK  121  A    between atoms: _283  and  _284
REMARK  122  A    between atoms: _283  and  _286
REMARK  123  A    between atoms: _286  and  _287
REMARK  124  A    between atoms: _290  and  _292
REMARK  125  A    between atoms: _292  and  _293
REMARK  126  A    between atoms: _295  and  _297
REMARK  127  A    between atoms: _297  and  _298
REMARK  128  A    between atoms: _297  and  _300
REMARK  129  A    between atoms: _300  and  _301
REMARK  130  A    between atoms: _304  and  _306
REMARK  131  A    between atoms: _306  and  _307
REMARK  132  A    between atoms: _306  and  _309
REMARK  133  A    between atoms: _309  and  _310
REMARK  134  A    between atoms: _313  and  _315
REMARK  135  A    between atoms: _315  and  _316
REMARK  136  A    between atoms: _315  and  _318
REMARK  137  A    between atoms: _318  and  _319
REMARK  138  A    between atoms: _322  and  _324
REMARK  139  A    between atoms: _324  and  _325
REMARK  140  A    between atoms: _328  and  _330
REMARK  141  A    between atoms: _330  and  _331
REMARK  142  A    between atoms: _330  and  _333
REMARK  143  A    between atoms: _333  and  _334
REMARK  144  A    between atoms: _340  and  _342
REMARK  145  A    between atoms: _342  and  _343
REMARK  146  A    between atoms: _342  and  _345
REMARK  147  A    between atoms: _345  and  _346
REMARK  148  A    between atoms: _349  and  _351
REMARK  149  A    between atoms: _351  and  _352
REMARK  150  A    between atoms: _351  and  _354
REMARK  151  A    between atoms: _354  and  _355
REMARK  152  A    between atoms: _358  and  _360
REMARK  153  A    between atoms: _360  and  _361
REMARK  154  A    between atoms: _360  and  _363
REMARK  155  A    between atoms: _363  and  _364
REMARK  156  A    between atoms: _369  and  _371
REMARK  157  A    between atoms: _371  and  _372
REMARK  158  A    between atoms: _371  and  _374
REMARK  159  A    between atoms: _374  and  _375
REMARK  160  A    between atoms: _378  and  _380
REMARK  161  A    between atoms: _380  and  _381
REMARK  162  A    between atoms: _380  and  _383
REMARK  163  A    between atoms: _383  and  _384
REMARK  164  A    between atoms: _384  and  _385
REMARK  165  A    between atoms: _390  and  _392
REMARK  166  A    between atoms: _392  and  _393
REMARK  167  A    between atoms: _392  and  _395
REMARK  168  A    between atoms: _395  and  _396
REMARK  169  A    between atoms: _396  and  _397
REMARK  170  A    between atoms: _402  and  _404
REMARK  171  A    between atoms: _404  and  _405
REMARK  172  A    between atoms: _407  and  _409
REMARK  173  A    between atoms: _409  and  _410
REMARK  174  A    between atoms: _409  and  _412
REMARK  175  A    between atoms: _412  and  _413
REMARK  176  A    between atoms: _419  and  _421
REMARK  177  A    between atoms: _421  and  _422
REMARK  178  A    between atoms: _421  and  _424
REMARK  179  A    between atoms: _424  and  _425
REMARK  180  A    between atoms: _428  and  _430
REMARK  181  A    between atoms: _430  and  _431
REMARK  182  A    between atoms: _434  and  _436
REMARK  183  A    between atoms: _436  and  _437
REMARK  184  A    between atoms: _436  and  _439
REMARK  185  A    between atoms: _439  and  _440
REMARK  186  A    between atoms: _443  and  _445
REMARK  187  A    between atoms: _445  and  _446
REMARK  188  A    between atoms: _445  and  _448
REMARK  189  A    between atoms: _448  and  _449
REMARK  190  A    between atoms: _452  and  _454
REMARK  191  A    between atoms: _454  and  _455
REMARK  192  A    between atoms: _457  and  _459
REMARK  193  A    between atoms: _459  and  _460
REMARK  194  A    between atoms: _459  and  _462
REMARK  195  A    between atoms: _462  and  _463
REMARK  196  A    between atoms: _466  and  _468
REMARK  197  A    between atoms: _468  and  _469
REMARK  198  A    between atoms: _468  and  _471
REMARK  199  A    between atoms: _471  and  _472
REMARK  200  A    between atoms: _475  and  _477
REMARK  201  A    between atoms: _477  and  _478
REMARK  202  A    between atoms: _477  and  _480
REMARK  203  A    between atoms: _480  and  _481
REMARK  204  A    between atoms: _484  and  _486
REMARK  205  A    between atoms: _486  and  _487
REMARK  206  A    between atoms: _486  and  _489
REMARK  207  A    between atoms: _489  and  _490
REMARK  208  A    between atoms: _495  and  _496
REMARK  209  A    between atoms: _498  and  _500
REMARK  210  A    between atoms: _500  and  _501
REMARK  211  A    between atoms: _500  and  _503
REMARK  212  A    between atoms: _503  and  _504
REMARK  213  A    between atoms: _510  and  _512
REMARK  214  A    between atoms: _512  and  _513
REMARK  215  A    between atoms: _515  and  _517
REMARK  216  A    between atoms: _517  and  _518
REMARK  217  A    between atoms: _517  and  _520
REMARK  218  A    between atoms: _520  and  _521
REMARK  219  A    between atoms: _524  and  _526
REMARK  220  A    between atoms: _526  and  _527
REMARK  221  A    between atoms: _529  and  _531
REMARK  222  A    between atoms: _531  and  _532
REMARK  223  A    between atoms: _531  and  _534
REMARK  224  A    between atoms: _534  and  _535
REMARK  225  A    between atoms: _538  and  _540
REMARK  226  A    between atoms: _540  and  _541
REMARK  227  A    between atoms: _540  and  _543
REMARK  228  A    between atoms: _543  and  _544
REMARK  229  A    between atoms: _549  and  _551
REMARK  230  A    between atoms: _551  and  _552
REMARK  231  A    between atoms: _551  and  _554
REMARK  232  A    between atoms: _554  and  _555
REMARK  233  A    between atoms: _558  and  _560
REMARK  234  A    between atoms: _560  and  _561
REMARK  235  A    between atoms: _563  and  _565
REMARK  236  A    between atoms: _565  and  _566
REMARK  237  A    between atoms: _565  and  _568
REMARK  238  A    between atoms: _568  and  _569
REMARK                            x       y       z     vdW  Elec       q    Type
REMARK                         _______ _______ _______ _____ _____    ______ ____
ROOT
ATOM      1  CG  TYR A   1      -2.005   9.423   0.834  0.00  0.00    -0.020 A 
ATOM      2  CD2 TYR A   1      -1.767   8.137   1.267  0.00  0.00    -0.001 A 
ATOM      3  CE2 TYR A   1      -2.777   7.296   1.661  0.00  0.00    +0.036 A 
ATOM      4  CZ  TYR A   1      -4.071   7.753   1.630  0.00  0.00    +0.134 A 
ATOM      5  CE1 TYR A   1      -4.330   9.044   1.200  0.00  0.00    +0.036 A 
ATOM      6  CD1 TYR A   1      -3.302   9.865   0.800  0.00  0.00    -0.001 A 
ENDROOT
BRANCH   4   7
ATOM      7  OH  TYR A   1      -5.073   6.906   2.033  0.00  0.00    -0.506 OA
ATOM      8  HH  TYR A   1      -5.945   7.369   1.957  0.00  0.00    +0.292 HD
ENDBRANCH   4   7
BRANCH   1   9
ATOM      9  CB  TYR A   1      -0.871  10.326   0.380  0.00  0.00    +0.051 C 
BRANCH   9  10
ATOM     10  CA  TYR A   1      -0.599  10.181  -1.121  0.00  0.00    +0.137 C 
BRANCH  10  11
ATOM     11  N   TYR A   1      -0.053   8.844  -1.438  0.00  0.00    -0.239 NA
ATOM     12  H   TYR A   1       0.751   8.495  -0.878  0.00  0.00    +0.142 HD
ENDBRANCH  10  11
BRANCH  10  13
ATOM     13  C   TYR A   1       0.414  11.232  -1.573  0.00  0.00    +0.224 C 
ATOM     14  O   TYR A   1       1.536  11.262  -1.030  0.00  0.00    -0.287 OA
ENDBRANCH  10  13
ENDBRANCH   9  10
ENDBRANCH   1   9
TORSDOF 5
REMARK  Name = ../refined-set-2016/3prs/3prs_pocket.pdb
REMARK  238 active torsions:
REMARK  status: ('A' for Active; 'I' for Inactive)
REMARK    1  A    between atoms: _1  and  _3
REMARK    2  A    between atoms: _3  and  _4
REMARK    3  A    between atoms: _3  and  _6
REMARK    4  A    between atoms: _6  and  _7
REMARK    5  A    between atoms: _10  and  _12
REMARK    6  A    between atoms: _12  and  _13
REMARK    7  A    between atoms: _12  and  _15
REMARK    8  A    between atoms: _15  and  _16
REMARK    9  A    between atoms: _19  and  _21
REMARK   10  A    between atoms: _21  and  _22
REMARK   11  A    between atoms: _21  and  _24
REMARK   12  A    between atoms: _24  and  _25
REMARK   13  A    between atoms: _28  and  _30
REMARK   14  A    between atoms: _30  and  _31
REMARK   15  A    between atoms: _30  and  _33
REMARK   16  A    between atoms: _33  and  _34
REMARK   17  A    between atoms: _37  and  _39
REMARK   18  A    between atoms: _39  and  _40
REMARK   19  A    between atoms: _39  and  _42
REMARK   20  A    between atoms: _42  and  _43
REMARK   21  A    between atoms: _46  and  _48
REMARK   22  A    between atoms: _48  and  _49
REMARK   23  A    between atoms: _52  and  _54
REMARK   24  A    between atoms: _54  and  _55
REMARK   25  A    between atoms: _54  and  _57
REMARK   26  A    between atoms: _57  and  _58
REMARK   27  A    between atoms: _63  and  _64
REMARK   28  A    between atoms: _66  and  _68
REMARK   29  A    between atoms: _68  and  _69
REMARK   30  A    between atoms: _68  and  _71
REMARK   31  A    between atoms: _71  and  _72
REMARK   32  A    between atoms: _75  and  _77
REMARK   33  A    between atoms: _77  and  _78
REMARK   34  A    between atoms: _77  and  _80
REMARK   35  A    between atoms: _80  and  _81
REMARK   36  A    between atoms: _87  and  _89
REMARK   37  A    between atoms: _89  and  _90
REMARK   38  A    between atoms: _89  and  _92
REMARK   39  A    between atoms: _92  and  _93
REMARK   40  A    between atoms: _96  and  _98
REMARK   41  A    between atoms: _98  and  _99
REMARK   42  A    between atoms: _98  and  _101
REMARK   43  A    between atoms: _101  and  _102
REMARK   44  A    between atoms: _105  and  _107
REMARK   45  A    between atoms: _107  and  _108
REMARK   46  A    between atoms: _110  and  _112
REMARK   47  A    between atoms: _112  and  _113
REMARK   48  A    between atoms: _112  and  _115
REMARK   49  A    between atoms: _115  and  _116
REMARK   50  A    between atoms: _118  and  _120
REMARK   51  A    between atoms: _120  and  _121
REMARK   52  A    between atoms: _120  and  _123
REMARK   53  A    between atoms: _123  and  _124
REMARK   54  A    between atoms: _126  and  _128
REMARK   55  A    between atoms: _128  and  _129
REMARK   56  A    between atoms: _128  and  _131
REMARK   57  A    between atoms: _131  and  _132
REMARK   58  A    between atoms: _135  and  _137
REMARK   59  A    between atoms: _137  and  _138
REMARK   60  A    between atoms: _137  and  _140
REMARK   61  A    between atoms: _140  and  _141
REMARK   62  A    between atoms: _151  and  _153
REMARK   63  A    between atoms: _153  and  _154
REMARK   64  A    between atoms: _153  and  _156
REMARK   65  A    between atoms: _156  and  _157
REMARK   66  A    between atoms: _159  and  _161
REMARK   67  A    between atoms: _161  and  _162
REMARK   68  A    between atoms: _161  and  _164
REMARK   69  A    between atoms: _164  and  _165
REMARK   70  A    between atoms: _168  and  _170
REMARK   71  A    between atoms: _170  and  _171
REMARK   72  A    between atoms: _170  and  _173
REMARK   73  A    between atoms: _173  and  _174
REMARK   74  A    between atoms: _176  and  _178
REMARK   75  A    between atoms: _178  and  _179
REMARK   76  A    between atoms: _178  and  _181
REMARK   77  A    between atoms: _181  and  _182
REMARK   78  A    between atoms: _187  and  _188
REMARK   79  A    between atoms: _190  and  _192
REMARK   80  A    between atoms: _192  and  _193
REMARK   81  A    between atoms: _195  and  _197
REMARK   82  A    between atoms: _197  and  _198
REMARK   83  A    between atoms: _197  and  _200
REMARK   84  A    between atoms: _200  and  _201
REMARK   85  A    between atoms: _204  and  _206
REMARK   86  A    between atoms: _206  and  _207
REMARK   87  A    between atoms: _209  and  _211
REMARK   88  A    between atoms: _211  and  _212
REMARK   89  A    between atoms: _211  and  _214
REMARK   90  A    between atoms: _214  and  _215
REMARK   91  A    between atoms: _217  and  _219
REMARK   92  A    between atoms: _219  and  _220
REMARK   93  A    between atoms: _219  and  _222
REMARK   94  A    between atoms: _222  and  _223
REMARK   95  A    between atoms: _225  and  _227
REMARK   96  A    between atoms: _227  and  _228
REMARK   97  A    between atoms: _227  and  _230
REMARK   98  A    between atoms: _230  and  _231
REMARK   99  A    between atoms: _233  and  _235
REMARK  100  A    between atoms: _235  and  _236
REMARK  101  A    between atoms: _235  and  _238
REMARK  102  A    between atoms: _238  and  _239
REMARK  103  A    between atoms: _245  and  _247
REMARK  104  A    between atoms: _247  and  _248
REMARK  105  A    between atoms: _247  and  _250
REMARK  106  A    between atoms: _250  and  _251
REMARK  107  A    between atoms: _251  and  _252
REMARK  108  A    between atoms: _255  and  _257
REMARK  109  A    between atoms: _257  and  _258
REMARK  110  A    between atoms: _257  and  _260
REMARK  111  A    between atoms: _260  and  _261
REMARK  112  A    between atoms: _264  and  _266
REMARK  113  A    between atoms: _266  and  _267
REMARK  114  A    between atoms: _266  and  _269
REMARK  115  A    between atoms: _269  and  _270
REMARK  116  A    between atoms: _272  and  _274
REMARK  117  A    between atoms: _274  and  _275
REMARK  118  A    between atoms: _274  and  _277
REMARK  119  A    between atoms: _277  and  _278
REMARK  120  A    between atoms: _281  and  _283
REMARK  121  A    between atoms: _283  and  _284
REMARK  122  A    between atoms: _283  and  _286
REMARK  123  A    between atoms: _286  and  _287
REMARK  124  A    between atoms: _290  and  _292
REMARK  125  A    between atoms: _292  and  _293
REMARK  126  A    between atoms: _295  and  _297
REMARK  127  A    between atoms: _297  and  _298
REMARK  128  A    between atoms: _297  and  _300
REMARK  129  A    between atoms: _300  and  _301
REMARK  130  A    between atoms: _304  and  _306
REMARK  131  A    between atoms: _306  and  _307
REMARK  132  A    between atoms: _306  and  _309
REMARK  133  A    between atoms: _309  and  _310
REMARK  134  A    between atoms: _313  and  _315
REMARK  135  A    between atoms: _315  and  _316
REMARK  136  A    between atoms: _315  and  _318
REMARK  137  A    between atoms: _318  and  _319
REMARK  138  A    between atoms: _322  and  _324
REMARK  139  A    between atoms: _324  and  _325
REMARK  140  A    between atoms: _328  and  _330
REMARK  141  A    between atoms: _330  and  _331
REMARK  142  A    between atoms: _330  and  _333
REMARK  143  A    between atoms: _333  and  _334
REMARK  144  A    between atoms: _340  and  _342
REMARK  145  A    between atoms: _342  and  _343
REMARK  146  A    between atoms: _342  and  _345
REMARK  147  A    between atoms: _345  and  _346
REMARK  148  A    between atoms: _349  and  _351
REMARK  149  A    between atoms: _351  and  _352
REMARK  150  A    between atoms: _351  and  _354
REMARK  151  A    between atoms: _354  and  _355
REMARK  152  A    between atoms: _358  and  _360
REMARK  153  A    between atoms: _360  and  _361
REMARK  154  A    between atoms: _360  and  _363
REMARK  155  A    between atoms: _363  and  _364
REMARK  156  A    between atoms: _369  and  _371
REMARK  157  A    between atoms: _371  and  _372
REMARK  158  A    between atoms: _371  and  _374
REMARK  159  A    between atoms: _374  and  _375
REMARK  160  A    between atoms: _378  and  _380
REMARK  161  A    between atoms: _380  and  _381
REMARK  162  A    between atoms: _380  and  _383
REMARK  163  A    between atoms: _383  and  _384
REMARK  164  A    between atoms: _384  and  _385
REMARK  165  A    between atoms: _390  and  _392
REMARK  166  A    between atoms: _392  and  _393
REMARK  167  A    between atoms: _392  and  _395
REMARK  168  A    between atoms: _395  and  _396
REMARK  169  A    between atoms: _396  and  _397
REMARK  170  A    between atoms: _402  and  _404
REMARK  171  A    between atoms: _404  and  _405
REMARK  172  A    between atoms: _407  and  _409
REMARK  173  A    between atoms: _409  and  _410
REMARK  174  A    between atoms: _409  and  _412
REMARK  175  A    between atoms: _412  and  _413
REMARK  176  A    between atoms: _419  and  _421
REMARK  177  A    between atoms: _421  and  _422
REMARK  178  A    between atoms: _421  and  _424
REMARK  179  A    between atoms: _424  and  _425
REMARK  180  A    between atoms: _428  and  _430
REMARK  181  A    between atoms: _430  and  _431
REMARK  182  A    between atoms: _434  and  _436
REMARK  183  A    between atoms: _436  and  _437
REMARK  184  A    between atoms: _436  and  _439
REMARK  185  A    between atoms: _439  and  _440
REMARK  186  A    between atoms: _443  and  _445
REMARK  187  A    between atoms: _445  and  _446
REMARK  188  A    between atoms: _445  and  _448
REMARK  189  A    between atoms: _448  and  _449
REMARK  190  A    between atoms: _452  and  _454
REMARK  191  A    between atoms: _454  and  _455
REMARK  192  A    between atoms: _457  and  _459
REMARK  193  A    between atoms: _459  and  _460
REMARK  194  A    between atoms: _459  and  _462
REMARK  195  A    between atoms: _462  and  _463
REMARK  196  A    between atoms: _466  and  _468
REMARK  197  A    between atoms: _468  and  _469
REMARK  198  A    between atoms: _468  and  _471
REMARK  199  A    between atoms: _471  and  _472
REMARK  200  A    between atoms: _475  and  _477
REMARK  201  A    between atoms: _477  and  _478
REMARK  202  A    between atoms: _477  and  _480
REMARK  203  A    between atoms: _480  and  _481
REMARK  204  A    between atoms: _484  and  _486
REMARK  205  A    between atoms: _486  and  _487
REMARK  206  A    between atoms: _486  and  _489
REMARK  207  A    between atoms: _489  and  _490
REMARK  208  A    between atoms: _495  and  _496
REMARK  209  A    between atoms: _498  and  _500
REMARK  210  A    between atoms: _500  and  _501
REMARK  211  A    between atoms: _500  and  _503
REMARK  212  A    between atoms: _503  and  _504
REMARK  213  A    between atoms: _510  and  _512
REMARK  214  A    between atoms: _512  and  _513
REMARK  215  A    between atoms: _515  and  _517
REMARK  216  A    between atoms: _517  and  _518
REMARK  217  A    between atoms: _517  and  _520
REMARK  218  A    between atoms: _520  and  _521
REMARK  219  A    between atoms: _524  and  _526
REMARK  220  A    between atoms: _526  and  _527
REMARK  221  A    between atoms: _529  and  _531
REMARK  222  A    between atoms: _531  and  _532
REMARK  223  A    between atoms: _531  and  _534
REMARK  224  A    between atoms: _534  and  _535
REMARK  225  A    between atoms: _538  and  _540
REMARK  226  A    between atoms: _540  and  _541
REMARK  227  A    between atoms: _540  and  _543
REMARK  228  A    between atoms: _543  and  _544
REMARK  229  A    between atoms: _549  and  _551
REMARK  230  A    between atoms: _551  and  _552
REMARK  231  A    between atoms: _551  and  _554
REMARK  232  A    between atoms: _554  and  _555
REMARK  233  A    between atoms: _558  and  _560
REMARK  234  A    between atoms: _560  and  _561
REMARK  235  A    between atoms: _563  and  _565
REMARK  236  A    between atoms: _565  and  _566
REMARK  237  A    between atoms: _565  and  _568
REMARK  238  A    between atoms: _568  and  _569
REMARK                            x       y       z     vdW  Elec       q    Type
REMARK                         _______ _______ _______ _____ _____    ______ ____
ROOT
ATOM      1  CB  PHE A   1      -8.627   0.677  -3.966  0.00  0.00    +0.051 C 
ENDROOT
BRANCH   1   2
ATOM      2  CG  PHE A   1      -7.160   0.347  -3.679  0.00  0.00    -0.020 A 
ATOM      3  CD2 PHE A   1      -6.803  -0.533  -2.685  0.00  0.00    -0.004 A 
ATOM      4  CE2 PHE A   1      -5.481  -0.890  -2.512  0.00  0.00    -0.000 A 
ATOM      5  CZ  PHE A   1      -4.502  -0.403  -3.341  0.00  0.00    -0.000 A 
ATOM      6  CE1 PHE A   1      -4.845   0.499  -4.336  0.00  0.00    -0.000 A 
ATOM      7  CD1 PHE A   1      -6.175   0.861  -4.487  0.00  0.00    -0.004 A 
ENDBRANCH   1   2
BRANCH   1   8
ATOM      8  CA  PHE A   1      -9.082  -0.257  -5.113  0.00  0.00    +0.137 C 
BRANCH   8   9
ATOM      9  N   PHE A   1      -8.710   0.284  -6.407  0.00  0.00    -0.239 NA
ATOM     10  H   PHE A   1      -9.044   1.233  -6.671  0.00  0.00    +0.142 HD
ENDBRANCH   8   9
BRANCH   8  11
ATOM     11  C   PHE A   1     -10.557  -0.637  -5.017  0.00  0.00    +0.224 C 
ATOM     12  O   PHE A   1     -11.081  -0.815  -3.915  0.00  0.00    -0.287 OA
ENDBRANCH   8  11
ENDBRANCH   1   8
TORSDOF 4
REMARK  Name = ../refined-set-2016/3prs/3prs_pocket.pdb
REMARK  238 active torsions:
REMARK  status: ('A' for Active; 'I' for Inactive)
REMARK    1  A    between atoms: _1  and  _3
REMARK    2  A    between atoms: _3  and  _4
REMARK    3  A    between atoms: _3  and  _6
REMARK    4  A    between atoms: _6  and  _7
REMARK    5  A    between atoms: _10  and  _12
REMARK    6  A    between atoms: _12  and  _13
REMARK    7  A    between atoms: _12  and  _15
REMARK    8  A    between atoms: _15  and  _16
REMARK    9  A    between atoms: _19  and  _21
REMARK   10  A    between atoms: _21  and  _22
REMARK   11  A    between atoms: _21  and  _24
REMARK   12  A    between atoms: _24  and  _25
REMARK   13  A    between atoms: _28  and  _30
REMARK   14  A    between atoms: _30  and  _31
REMARK   15  A    between atoms: _30  and  _33
REMARK   16  A    between atoms: _33  and  _34
REMARK   17  A    between atoms: _37  and  _39
REMARK   18  A    between atoms: _39  and  _40
REMARK   19  A    between atoms: _39  and  _42
REMARK   20  A    between atoms: _42  and  _43
REMARK   21  A    between atoms: _46  and  _48
REMARK   22  A    between atoms: _48  and  _49
REMARK   23  A    between atoms: _52  and  _54
REMARK   24  A    between atoms: _54  and  _55
REMARK   25  A    between atoms: _54  and  _57
REMARK   26  A    between atoms: _57  and  _58
REMARK   27  A    between atoms: _63  and  _64
REMARK   28  A    between atoms: _66  and  _68
REMARK   29  A    between atoms: _68  and  _69
REMARK   30  A    between atoms: _68  and  _71
REMARK   31  A    between atoms: _71  and  _72
REMARK   32  A    between atoms: _75  and  _77
REMARK   33  A    between atoms: _77  and  _78
REMARK   34  A    between atoms: _77  and  _80
REMARK   35  A    between atoms: _80  and  _81
REMARK   36  A    between atoms: _87  and  _89
REMARK   37  A    between atoms: _89  and  _90
REMARK   38  A    between atoms: _89  and  _92
REMARK   39  A    between atoms: _92  and  _93
REMARK   40  A    between atoms: _96  and  _98
REMARK   41  A    between atoms: _98  and  _99
REMARK   42  A    between atoms: _98  and  _101
REMARK   43  A    between atoms: _101  and  _102
REMARK   44  A    between atoms: _105  and  _107
REMARK   45  A    between atoms: _107  and  _108
REMARK   46  A    between atoms: _110  and  _112
REMARK   47  A    between atoms: _112  and  _113
REMARK   48  A    between atoms: _112  and  _115
REMARK   49  A    between atoms: _115  and  _116
REMARK   50  A    between atoms: _118  and  _120
REMARK   51  A    between atoms: _120  and  _121
REMARK   52  A    between atoms: _120  and  _123
REMARK   53  A    between atoms: _123  and  _124
REMARK   54  A    between atoms: _126  and  _128
REMARK   55  A    between atoms: _128  and  _129
REMARK   56  A    between atoms: _128  and  _131
REMARK   57  A    between atoms: _131  and  _132
REMARK   58  A    between atoms: _135  and  _137
REMARK   59  A    between atoms: _137  and  _138
REMARK   60  A    between atoms: _137  and  _140
REMARK   61  A    between atoms: _140  and  _141
REMARK   62  A    between atoms: _151  and  _153
REMARK   63  A    between atoms: _153  and  _154
REMARK   64  A    between atoms: _153  and  _156
REMARK   65  A    between atoms: _156  and  _157
REMARK   66  A    between atoms: _159  and  _161
REMARK   67  A    between atoms: _161  and  _162
REMARK   68  A    between atoms: _161  and  _164
REMARK   69  A    between atoms: _164  and  _165
REMARK   70  A    between atoms: _168  and  _170
REMARK   71  A    between atoms: _170  and  _171
REMARK   72  A    between atoms: _170  and  _173
REMARK   73  A    between atoms: _173  and  _174
REMARK   74  A    between atoms: _176  and  _178
REMARK   75  A    between atoms: _178  and  _179
REMARK   76  A    between atoms: _178  and  _181
REMARK   77  A    between atoms: _181  and  _182
REMARK   78  A    between atoms: _187  and  _188
REMARK   79  A    between atoms: _190  and  _192
REMARK   80  A    between atoms: _192  and  _193
REMARK   81  A    between atoms: _195  and  _197
REMARK   82  A    between atoms: _197  and  _198
REMARK   83  A    between atoms: _197  and  _200
REMARK   84  A    between atoms: _200  and  _201
REMARK   85  A    between atoms: _204  and  _206
REMARK   86  A    between atoms: _206  and  _207
REMARK   87  A    between atoms: _209  and  _211
REMARK   88  A    between atoms: _211  and  _212
REMARK   89  A    between atoms: _211  and  _214
REMARK   90  A    between atoms: _214  and  _215
REMARK   91  A    between atoms: _217  and  _219
REMARK   92  A    between atoms: _219  and  _220
REMARK   93  A    between atoms: _219  and  _222
REMARK   94  A    between atoms: _222  and  _223
REMARK   95  A    between atoms: _225  and  _227
REMARK   96  A    between atoms: _227  and  _228
REMARK   97  A    between atoms: _227  and  _230
REMARK   98  A    between atoms: _230  and  _231
REMARK   99  A    between atoms: _233  and  _235
REMARK  100  A    between atoms: _235  and  _236
REMARK  101  A    between atoms: _235  and  _238
REMARK  102  A    between atoms: _238  and  _239
REMARK  103  A    between atoms: _245  and  _247
REMARK  104  A    between atoms: _247  and  _248
REMARK  105  A    between atoms: _247  and  _250
REMARK  106  A    between atoms: _250  and  _251
REMARK  107  A    between atoms: _251  and  _252
REMARK  108  A    between atoms: _255  and  _257
REMARK  109  A    between atoms: _257  and  _258
REMARK  110  A    between atoms: _257  and  _260
REMARK  111  A    between atoms: _260  and  _261
REMARK  112  A    between atoms: _264  and  _266
REMARK  113  A    between atoms: _266  and  _267
REMARK  114  A    between atoms: _266  and  _269
REMARK  115  A    between atoms: _269  and  _270
REMARK  116  A    between atoms: _272  and  _274
REMARK  117  A    between atoms: _274  and  _275
REMARK  118  A    between atoms: _274  and  _277
REMARK  119  A    between atoms: _277  and  _278
REMARK  120  A    between atoms: _281  and  _283
REMARK  121  A    between atoms: _283  and  _284
REMARK  122  A    between atoms: _283  and  _286
REMARK  123  A    between atoms: _286  and  _287
REMARK  124  A    between atoms: _290  and  _292
REMARK  125  A    between atoms: _292  and  _293
REMARK  126  A    between atoms: _295  and  _297
REMARK  127  A    between atoms: _297  and  _298
REMARK  128  A    between atoms: _297  and  _300
REMARK  129  A    between atoms: _300  and  _301
REMARK  130  A    between atoms: _304  and  _306
REMARK  131  A    between atoms: _306  and  _307
REMARK  132  A    between atoms: _306  and  _309
REMARK  133  A    between atoms: _309  and  _310
REMARK  134  A    between atoms: _313  and  _315
REMARK  135  A    between atoms: _315  and  _316
REMARK  136  A    between atoms: _315  and  _318
REMARK  137  A    between atoms: _318  and  _319
REMARK  138  A    between atoms: _322  and  _324
REMARK  139  A    between atoms: _324  and  _325
REMARK  140  A    between atoms: _328  and  _330
REMARK  141  A    between atoms: _330  and  _331
REMARK  142  A    between atoms: _330  and  _333
REMARK  143  A    between atoms: _333  and  _334
REMARK  144  A    between atoms: _340  and  _342
REMARK  145  A    between atoms: _342  and  _343
REMARK  146  A    between atoms: _342  and  _345
REMARK  147  A    between atoms: _345  and  _346
REMARK  148  A    between atoms: _349  and  _351
REMARK  149  A    between atoms: _351  and  _352
REMARK  150  A    between atoms: _351  and  _354
REMARK  151  A    between atoms: _354  and  _355
REMARK  152  A    between atoms: _358  and  _360
REMARK  153  A    between atoms: _360  and  _361
REMARK  154  A    between atoms: _360  and  _363
REMARK  155  A    between atoms: _363  and  _364
REMARK  156  A    between atoms: _369  and  _371
REMARK  157  A    between atoms: _371  and  _372
REMARK  158  A    between atoms: _371  and  _374
REMARK  159  A    between atoms: _374  and  _375
REMARK  160  A    between atoms: _378  and  _380
REMARK  161  A    between atoms: _380  and  _381
REMARK  162  A    between atoms: _380  and  _383
REMARK  163  A    between atoms: _383  and  _384
REMARK  164  A    between atoms: _384  and  _385
REMARK  165  A    between atoms: _390  and  _392
REMARK  166  A    between atoms: _392  and  _393
REMARK  167  A    between atoms: _392  and  _395
REMARK  168  A    between atoms: _395  and  _396
REMARK  169  A    between atoms: _396  and  _397
REMARK  170  A    between atoms: _402  and  _404
REMARK  171  A    between atoms: _404  and  _405
REMARK  172  A    between atoms: _407  and  _409
REMARK  173  A    between atoms: _409  and  _410
REMARK  174  A    between atoms: _409  and  _412
REMARK  175  A    between atoms: _412  and  _413
REMARK  176  A    between atoms: _419  and  _421
REMARK  177  A    between atoms: _421  and  _422
REMARK  178  A    between atoms: _421  and  _424
REMARK  179  A    between atoms: _424  and  _425
REMARK  180  A    between atoms: _428  and  _430
REMARK  181  A    between atoms: _430  and  _431
REMARK  182  A    between atoms: _434  and  _436
REMARK  183  A    between atoms: _436  and  _437
REMARK  184  A    between atoms: _436  and  _439
REMARK  185  A    between atoms: _439  and  _440
REMARK  186  A    between atoms: _443  and  _445
REMARK  187  A    between atoms: _445  and  _446
REMARK  188  A    between atoms: _445  and  _448
REMARK  189  A    between atoms: _448  and  _449
REMARK  190  A    between atoms: _452  and  _454
REMARK  191  A    between atoms: _454  and  _455
REMARK  192  A    between atoms: _457  and  _459
REMARK  193  A    between atoms: _459  and  _460
REMARK  194  A    between atoms: _459  and  _462
REMARK  195  A    between atoms: _462  and  _463
REMARK  196  A    between atoms: _466  and  _468
REMARK  197  A    between atoms: _468  and  _469
REMARK  198  A    between atoms: _468  and  _471
REMARK  199  A    between atoms: _471  and  _472
REMARK  200  A    between atoms: _475  and  _477
REMARK  201  A    between atoms: _477  and  _478
REMARK  202  A    between atoms: _477  and  _480
REMARK  203  A    between atoms: _480  and  _481
REMARK  204  A    between atoms: _484  and  _486
REMARK  205  A    between atoms: _486  and  _487
REMARK  206  A    between atoms: _486  and  _489
REMARK  207  A    between atoms: _489  and  _490
REMARK  208  A    between atoms: _495  and  _496
REMARK  209  A    between atoms: _498  and  _500
REMARK  210  A    between atoms: _500  and  _501
REMARK  211  A    between atoms: _500  and  _503
REMARK  212  A    between atoms: _503  and  _504
REMARK  213  A    between atoms: _510  and  _512
REMARK  214  A    between atoms: _512  and  _513
REMARK  215  A    between atoms: _515  and  _517
REMARK  216  A    between atoms: _517  and  _518
REMARK  217  A    between atoms: _517  and  _520
REMARK  218  A    between atoms: _520  and  _521
REMARK  219  A    between atoms: _524  and  _526
REMARK  220  A    between atoms: _526  and  _527
REMARK  221  A    between atoms: _529  and  _531
REMARK  222  A    between atoms: _531  and  _532
REMARK  223  A    between atoms: _531  and  _534
REMARK  224  A    between atoms: _534  and  _535
REMARK  225  A    between atoms: _538  and  _540
REMARK  226  A    between atoms: _540  and  _541
REMARK  227  A    between atoms: _540  and  _543
REMARK  228  A    between atoms: _543  and  _544
REMARK  229  A    between atoms: _549  and  _551
REMARK  230  A    between atoms: _551  and  _552
REMARK  231  A    between atoms: _551  and  _554
REMARK  232  A    between atoms: _554  and  _555
REMARK  233  A    between atoms: _558  and  _560
REMARK  234  A    between atoms: _560  and  _561
REMARK  235  A    between atoms: _563  and  _565
REMARK  236  A    between atoms: _565  and  _566
REMARK  237  A    between atoms: _565  and  _568
REMARK  238  A    between atoms: _568  and  _569
REMARK                            x       y       z     vdW  Elec       q    Type
REMARK                         _______ _______ _______ _____ _____    ______ ____
ROOT
ATOM      1  CA  ILE A   4       3.330  14.735   4.559  0.00  0.00    +0.149 C 
ENDROOT
BRANCH   1   4
ATOM      2  C   GLY A   3       2.270  16.569   5.775  0.00  0.00    +0.243 C 
ATOM      3  O   GLY A   3       3.348  17.070   6.138  0.00  0.00    -0.273 OA
ATOM      4  N   ILE A   4       2.154  15.446   5.068  0.00  0.00    -0.297 N 
ATOM      5  H   ILE A   4       1.206  15.065   4.873  0.00  0.00    +0.150 HD
BRANCH   2   6
ATOM      6  CA  GLY A   3       0.995  17.242   6.195  0.00  0.00    +0.176 C 
BRANCH   6   9
ATOM      7  C   ILE A   2      -0.785  15.629   6.633  0.00  0.00    +0.241 C 
ATOM      8  O   ILE A   2      -0.351  15.335   7.738  0.00  0.00    -0.273 OA
ATOM      9  N   GLY A   3      -0.211  16.523   5.850  0.00  0.00    -0.295 N 
ATOM     10  H   GLY A   3      -0.653  16.722   4.930  0.00  0.00    +0.150 HD
BRANCH   7  11
ATOM     11  CA  ILE A   2      -2.022  14.964   6.075  0.00  0.00    +0.148 C 
BRANCH  11  14
ATOM     12  C   GLY A   1      -3.540  16.828   5.871  0.00  0.00    +0.240 C 
ATOM     13  O   GLY A   1      -3.894  16.716   7.069  0.00  0.00    -0.274 OA
ATOM     14  N   ILE A   2      -2.733  15.964   5.279  0.00  0.00    -0.297 N 
ATOM     15  H   ILE A   2      -2.604  15.995   4.248  0.00  0.00    +0.150 HD
BRANCH  12  16
ATOM     16  CA  GLY A   1      -4.076  17.994   5.068  0.00  0.00    +0.169 C 
BRANCH  16  17
ATOM     17  N   GLY A   1      -3.429  18.264   3.781  0.00  0.00    -0.236 NA
ATOM     18  H   GLY A   1      -2.650  18.944   3.671  0.00  0.00    +0.142 HD
ENDBRANCH  16  17
ENDBRANCH  12  16
ENDBRANCH  11  14
BRANCH  11  19
ATOM     19  CB  ILE A   2      -1.581  13.728   5.282  0.00  0.00    +0.027 C 
ATOM     20  CG2 ILE A   2      -0.698  12.824   6.137  0.00  0.00    +0.002 C 
BRANCH  19  21
ATOM     21  CG1 ILE A   2      -2.730  12.900   4.745  0.00  0.00    +0.002 C 
ATOM     22  CD1 ILE A   2      -2.311  11.745   3.857  0.00  0.00    +0.000 C 
ENDBRANCH  19  21
ENDBRANCH  11  19
ENDBRANCH   7  11
ENDBRANCH   6   9
ENDBRANCH   2   6
ENDBRANCH   1   4
BRANCH   1  23
ATOM     23  C   ILE A   4       2.890  13.912   3.366  0.00  0.00    +0.241 C 
ATOM     24  O   ILE A   4       1.780  13.413   3.323  0.00  0.00    -0.273 OA
ATOM     25  N   ASN A   5       3.760  13.769   2.378  0.00  0.00    -0.297 N 
ATOM     26  H   ASN A   5       4.654  14.300   2.383  0.00  0.00    +0.150 HD
BRANCH  25  27
ATOM     27  CA  ASN A   5       3.450  12.857   1.281  0.00  0.00    +0.158 C 
BRANCH  27  28
ATOM     28  C   ASN A   5       3.848  11.444   1.705  0.00  0.00    +0.241 C 
ATOM     29  O   ASN A   5       4.826  11.279   2.463  0.00  0.00    -0.273 OA
ATOM     30  N   ILE A   6       3.125  10.444   1.223  0.00  0.00    -0.298 N 
ATOM     31  H   ILE A   6       2.414  10.636   0.488  0.00  0.00    +0.150 HD
BRANCH  30  32
ATOM     32  CA  ILE A   6       3.307   9.071   1.705  0.00  0.00    +0.137 C 
BRANCH  32  33
ATOM     33  C   ILE A   6       3.387   8.124   0.518  0.00  0.00    +0.227 C 
ATOM     34  O   ILE A   6       2.427   7.955  -0.213  0.00  0.00    -0.286 OA
ENDBRANCH  32  33
BRANCH  32  35
ATOM     35  CB  ILE A   6       2.200   8.616   2.639  0.00  0.00    +0.026 C 
ATOM     36  CG2 ILE A   6       2.458   7.181   3.127  0.00  0.00    +0.002 C 
BRANCH  35  37
ATOM     37  CG1 ILE A   6       1.999   9.526   3.832  0.00  0.00    +0.002 C 
ATOM     38  CD1 ILE A   6       0.865   9.140   4.769  0.00  0.00    +0.000 C 
ENDBRANCH  35  37
ENDBRANCH  32  35
ENDBRANCH  30  32
ENDBRANCH  27  28
BRANCH  27  39
ATOM     39  CB  ASN A   5       4.204  13.256   0.029  0.00  0.00    +0.114 C 
BRANCH  39  40
ATOM     40  CG  ASN A   5       3.836  14.638  -0.494  0.00  0.00    +0.222 C 
ATOM     41  OD1 ASN A   5       2.671  14.984  -0.653  0.00  0.00    -0.275 OA
ATOM     42  ND2 ASN A   5       4.866  15.435  -0.734  0.00  0.00    -0.329 N 
ATOM     43 HD21 ASN A   5       5.836  15.091  -0.582  0.00  0.00    +0.145 HD
ATOM     44 HD22 ASN A   5       4.705  16.405  -1.074  0.00  0.00    +0.145 HD
ENDBRANCH  39  40
ENDBRANCH  27  39
ENDBRANCH  25  27
ENDBRANCH   1  23
BRANCH   1  45
ATOM     45  CB  ILE A   4       4.008  13.898   5.647  0.00  0.00    +0.027 C 
ATOM     46  CG2 ILE A   4       3.258  12.646   6.013  0.00  0.00    +0.002 C 
BRANCH  45  47
ATOM     47  CG1 ILE A   4       5.471  13.564   5.305  0.00  0.00    +0.002 C 
ATOM     48  CD1 ILE A   4       6.262  13.300   6.571  0.00  0.00    +0.000 C 
ENDBRANCH  45  47
ENDBRANCH   1  45
TORSDOF 20
REMARK  Name = ../refined-set-2016/3prs/3prs_pocket.pdb
REMARK  238 active torsions:
REMARK  status: ('A' for Active; 'I' for Inactive)
REMARK    1  A    between atoms: _1  and  _3
REMARK    2  A    between atoms: _3  and  _4
REMARK    3  A    between atoms: _3  and  _6
REMARK    4  A    between atoms: _6  and  _7
REMARK    5  A    between atoms: _10  and  _12
REMARK    6  A    between atoms: _12  and  _13
REMARK    7  A    between atoms: _12  and  _15
REMARK    8  A    between atoms: _15  and  _16
REMARK    9  A    between atoms: _19  and  _21
REMARK   10  A    between atoms: _21  and  _22
REMARK   11  A    between atoms: _21  and  _24
REMARK   12  A    between atoms: _24  and  _25
REMARK   13  A    between atoms: _28  and  _30
REMARK   14  A    between atoms: _30  and  _31
REMARK   15  A    between atoms: _30  and  _33
REMARK   16  A    between atoms: _33  and  _34
REMARK   17  A    between atoms: _37  and  _39
REMARK   18  A    between atoms: _39  and  _40
REMARK   19  A    between atoms: _39  and  _42
REMARK   20  A    between atoms: _42  and  _43
REMARK   21  A    between atoms: _46  and  _48
REMARK   22  A    between atoms: _48  and  _49
REMARK   23  A    between atoms: _52  and  _54
REMARK   24  A    between atoms: _54  and  _55
REMARK   25  A    between atoms: _54  and  _57
REMARK   26  A    between atoms: _57  and  _58
REMARK   27  A    between atoms: _63  and  _64
REMARK   28  A    between atoms: _66  and  _68
REMARK   29  A    between atoms: _68  and  _69
REMARK   30  A    between atoms: _68  and  _71
REMARK   31  A    between atoms: _71  and  _72
REMARK   32  A    between atoms: _75  and  _77
REMARK   33  A    between atoms: _77  and  _78
REMARK   34  A    between atoms: _77  and  _80
REMARK   35  A    between atoms: _80  and  _81
REMARK   36  A    between atoms: _87  and  _89
REMARK   37  A    between atoms: _89  and  _90
REMARK   38  A    between atoms: _89  and  _92
REMARK   39  A    between atoms: _92  and  _93
REMARK   40  A    between atoms: _96  and  _98
REMARK   41  A    between atoms: _98  and  _99
REMARK   42  A    between atoms: _98  and  _101
REMARK   43  A    between atoms: _101  and  _102
REMARK   44  A    between atoms: _105  and  _107
REMARK   45  A    between atoms: _107  and  _108
REMARK   46  A    between atoms: _110  and  _112
REMARK   47  A    between atoms: _112  and  _113
REMARK   48  A    between atoms: _112  and  _115
REMARK   49  A    between atoms: _115  and  _116
REMARK   50  A    between atoms: _118  and  _120
REMARK   51  A    between atoms: _120  and  _121
REMARK   52  A    between atoms: _120  and  _123
REMARK   53  A    between atoms: _123  and  _124
REMARK   54  A    between atoms: _126  and  _128
REMARK   55  A    between atoms: _128  and  _129
REMARK   56  A    between atoms: _128  and  _131
REMARK   57  A    between atoms: _131  and  _132
REMARK   58  A    between atoms: _135  and  _137
REMARK   59  A    between atoms: _137  and  _138
REMARK   60  A    between atoms: _137  and  _140
REMARK   61  A    between atoms: _140  and  _141
REMARK   62  A    between atoms: _151  and  _153
REMARK   63  A    between atoms: _153  and  _154
REMARK   64  A    between atoms: _153  and  _156
REMARK   65  A    between atoms: _156  and  _157
REMARK   66  A    between atoms: _159  and  _161
REMARK   67  A    between atoms: _161  and  _162
REMARK   68  A    between atoms: _161  and  _164
REMARK   69  A    between atoms: _164  and  _165
REMARK   70  A    between atoms: _168  and  _170
REMARK   71  A    between atoms: _170  and  _171
REMARK   72  A    between atoms: _170  and  _173
REMARK   73  A    between atoms: _173  and  _174
REMARK   74  A    between atoms: _176  and  _178
REMARK   75  A    between atoms: _178  and  _179
REMARK   76  A    between atoms: _178  and  _181
REMARK   77  A    between atoms: _181  and  _182
REMARK   78  A    between atoms: _187  and  _188
REMARK   79  A    between atoms: _190  and  _192
REMARK   80  A    between atoms: _192  and  _193
REMARK   81  A    between atoms: _195  and  _197
REMARK   82  A    between atoms: _197  and  _198
REMARK   83  A    between atoms: _197  and  _200
REMARK   84  A    between atoms: _200  and  _201
REMARK   85  A    between atoms: _204  and  _206
REMARK   86  A    between atoms: _206  and  _207
REMARK   87  A    between atoms: _209  and  _211
REMARK   88  A    between atoms: _211  and  _212
REMARK   89  A    between atoms: _211  and  _214
REMARK   90  A    between atoms: _214  and  _215
REMARK   91  A    between atoms: _217  and  _219
REMARK   92  A    between atoms: _219  and  _220
REMARK   93  A    between atoms: _219  and  _222
REMARK   94  A    between atoms: _222  and  _223
REMARK   95  A    between atoms: _225  and  _227
REMARK   96  A    between atoms: _227  and  _228
REMARK   97  A    between atoms: _227  and  _230
REMARK   98  A    between atoms: _230  and  _231
REMARK   99  A    between atoms: _233  and  _235
REMARK  100  A    between atoms: _235  and  _236
REMARK  101  A    between atoms: _235  and  _238
REMARK  102  A    between atoms: _238  and  _239
REMARK  103  A    between atoms: _245  and  _247
REMARK  104  A    between atoms: _247  and  _248
REMARK  105  A    between atoms: _247  and  _250
REMARK  106  A    between atoms: _250  and  _251
REMARK  107  A    between atoms: _251  and  _252
REMARK  108  A    between atoms: _255  and  _257
REMARK  109  A    between atoms: _257  and  _258
REMARK  110  A    between atoms: _257  and  _260
REMARK  111  A    between atoms: _260  and  _261
REMARK  112  A    between atoms: _264  and  _266
REMARK  113  A    between atoms: _266  and  _267
REMARK  114  A    between atoms: _266  and  _269
REMARK  115  A    between atoms: _269  and  _270
REMARK  116  A    between atoms: _272  and  _274
REMARK  117  A    between atoms: _274  and  _275
REMARK  118  A    between atoms: _274  and  _277
REMARK  119  A    between atoms: _277  and  _278
REMARK  120  A    between atoms: _281  and  _283
REMARK  121  A    between atoms: _283  and  _284
REMARK  122  A    between atoms: _283  and  _286
REMARK  123  A    between atoms: _286  and  _287
REMARK  124  A    between atoms: _290  and  _292
REMARK  125  A    between atoms: _292  and  _293
REMARK  126  A    between atoms: _295  and  _297
REMARK  127  A    between atoms: _297  and  _298
REMARK  128  A    between atoms: _297  and  _300
REMARK  129  A    between atoms: _300  and  _301
REMARK  130  A    between atoms: _304  and  _306
REMARK  131  A    between atoms: _306  and  _307
REMARK  132  A    between atoms: _306  and  _309
REMARK  133  A    between atoms: _309  and  _310
REMARK  134  A    between atoms: _313  and  _315
REMARK  135  A    between atoms: _315  and  _316
REMARK  136  A    between atoms: _315  and  _318
REMARK  137  A    between atoms: _318  and  _319
REMARK  138  A    between atoms: _322  and  _324
REMARK  139  A    between atoms: _324  and  _325
REMARK  140  A    between atoms: _328  and  _330
REMARK  141  A    between atoms: _330  and  _331
REMARK  142  A    between atoms: _330  and  _333
REMARK  143  A    between atoms: _333  and  _334
REMARK  144  A    between atoms: _340  and  _342
REMARK  145  A    between atoms: _342  and  _343
REMARK  146  A    between atoms: _342  and  _345
REMARK  147  A    between atoms: _345  and  _346
REMARK  148  A    between atoms: _349  and  _351
REMARK  149  A    between atoms: _351  and  _352
REMARK  150  A    between atoms: _351  and  _354
REMARK  151  A    between atoms: _354  and  _355
REMARK  152  A    between atoms: _358  and  _360
REMARK  153  A    between atoms: _360  and  _361
REMARK  154  A    between atoms: _360  and  _363
REMARK  155  A    between atoms: _363  and  _364
REMARK  156  A    between atoms: _369  and  _371
REMARK  157  A    between atoms: _371  and  _372
REMARK  158  A    between atoms: _371  and  _374
REMARK  159  A    between atoms: _374  and  _375
REMARK  160  A    between atoms: _378  and  _380
REMARK  161  A    between atoms: _380  and  _381
REMARK  162  A    between atoms: _380  and  _383
REMARK  163  A    between atoms: _383  and  _384
REMARK  164  A    between atoms: _384  and  _385
REMARK  165  A    between atoms: _390  and  _392
REMARK  166  A    between atoms: _392  and  _393
REMARK  167  A    between atoms: _392  and  _395
REMARK  168  A    between atoms: _395  and  _396
REMARK  169  A    between atoms: _396  and  _397
REMARK  170  A    between atoms: _402  and  _404
REMARK  171  A    between atoms: _404  and  _405
REMARK  172  A    between atoms: _407  and  _409
REMARK  173  A    between atoms: _409  and  _410
REMARK  174  A    between atoms: _409  and  _412
REMARK  175  A    between atoms: _412  and  _413
REMARK  176  A    between atoms: _419  and  _421
REMARK  177  A    between atoms: _421  and  _422
REMARK  178  A    between atoms: _421  and  _424
REMARK  179  A    between atoms: _424  and  _425
REMARK  180  A    between atoms: _428  and  _430
REMARK  181  A    between atoms: _430  and  _431
REMARK  182  A    between atoms: _434  and  _436
REMARK  183  A    between atoms: _436  and  _437
REMARK  184  A    between atoms: _436  and  _439
REMARK  185  A    between atoms: _439  and  _440
REMARK  186  A    between atoms: _443  and  _445
REMARK  187  A    between atoms: _445  and  _446
REMARK  188  A    between atoms: _445  and  _448
REMARK  189  A    between atoms: _448  and  _449
REMARK  190  A    between atoms: _452  and  _454
REMARK  191  A    between atoms: _454  and  _455
REMARK  192  A    between atoms: _457  and  _459
REMARK  193  A    between atoms: _459  and  _460
REMARK  194  A    between atoms: _459  and  _462
REMARK  195  A    between atoms: _462  and  _463
REMARK  196  A    between atoms: _466  and  _468
REMARK  197  A    between atoms: _468  and  _469
REMARK  198  A    between atoms: _468  and  _471
REMARK  199  A    between atoms: _471  and  _472
REMARK  200  A    between atoms: _475  and  _477
REMARK  201  A    between atoms: _477  and  _478
REMARK  202  A    between atoms: _477  and  _480
REMARK  203  A    between atoms: _480  and  _481
REMARK  204  A    between atoms: _484  and  _486
REMARK  205  A    between atoms: _486  and  _487
REMARK  206  A    between atoms: _486  and  _489
REMARK  207  A    between atoms: _489  and  _490
REMARK  208  A    between atoms: _495  and  _496
REMARK  209  A    between atoms: _498  and  _500
REMARK  210  A    between atoms: _500  and  _501
REMARK  211  A    between atoms: _500  and  _503
REMARK  212  A    between atoms: _503  and  _504
REMARK  213  A    between atoms: _510  and  _512
REMARK  214  A    between atoms: _512  and  _513
REMARK  215  A    between atoms: _515  and  _517
REMARK  216  A    between atoms: _517  and  _518
REMARK  217  A    between atoms: _517  and  _520
REMARK  218  A    between atoms: _520  and  _521
REMARK  219  A    between atoms: _524  and  _526
REMARK  220  A    between atoms: _526  and  _527
REMARK  221  A    between atoms: _529  and  _531
REMARK  222  A    between atoms: _531  and  _532
REMARK  223  A    between atoms: _531  and  _534
REMARK  224  A    between atoms: _534  and  _535
REMARK  225  A    between atoms: _538  and  _540
REMARK  226  A    between atoms: _540  and  _541
REMARK  227  A    between atoms: _540  and  _543
REMARK  228  A    between atoms: _543  and  _544
REMARK  229  A    between atoms: _549  and  _551
REMARK  230  A    between atoms: _551  and  _552
REMARK  231  A    between atoms: _551  and  _554
REMARK  232  A    between atoms: _554  and  _555
REMARK  233  A    between atoms: _558  and  _560
REMARK  234  A    between atoms: _560  and  _561
REMARK  235  A    between atoms: _563  and  _565
REMARK  236  A    between atoms: _565  and  _566
REMARK  237  A    between atoms: _565  and  _568
REMARK  238  A    between atoms: _568  and  _569
REMARK                            x       y       z     vdW  Elec       q    Type
REMARK                         _______ _______ _______ _____ _____    ______ ____
ROOT
ATOM      1  C   GLY A   1       2.686   2.451  -0.230  0.00  0.00    +0.240 C 
ATOM      2  N   ASP A   2       1.917   1.418   0.096  0.00  0.00    -0.298 N 
ATOM      3  H   ASP A   2       1.184   1.533   0.825  0.00  0.00    +0.150 HD
ATOM      4  O   GLY A   1       3.436   2.419  -1.206  0.00  0.00    -0.274 OA
ENDROOT
BRANCH   1   5
ATOM      5  CA  GLY A   1       2.571   3.660   0.678  0.00  0.00    +0.169 C 
BRANCH   5   6
ATOM      6  N   GLY A   1       3.117   4.858   0.068  0.00  0.00    -0.236 NA
ATOM      7  H   GLY A   1       2.471   5.511  -0.419  0.00  0.00    +0.142 HD
ENDBRANCH   5   6
ENDBRANCH   1   5
BRANCH   2   8
ATOM      8  CA  ASP A   2       2.087   0.123  -0.556  0.00  0.00    +0.148 C 
BRANCH   8   9
ATOM      9  C   ASP A   2       1.874   0.196  -2.065  0.00  0.00    +0.227 C 
ATOM     10  O   ASP A   2       2.563  -0.524  -2.798  0.00  0.00    -0.286 OA
ENDBRANCH   8   9
BRANCH   8  11
ATOM     11  CB  ASP A   2       1.133  -0.887   0.034  0.00  0.00    +0.142 C 
BRANCH  11  12
ATOM     12  CG  ASP A   2       1.311  -1.211   1.487  0.00  0.00    +0.367 C 
ATOM     13  OD2 ASP A   2       0.400  -1.727   2.174  0.00  0.00    -0.246 OA
ATOM     14  OD1 ASP A   2       2.451  -0.920   1.982  0.00  0.00    -0.246 OA
ENDBRANCH  11  12
ENDBRANCH   8  11
ENDBRANCH   2   8
TORSDOF 6
REMARK  Name = ../refined-set-2016/3prs/3prs_pocket.pdb
REMARK  238 active torsions:
REMARK  status: ('A' for Active; 'I' for Inactive)
REMARK    1  A    between atoms: _1  and  _3
REMARK    2  A    between atoms: _3  and  _4
REMARK    3  A    between atoms: _3  and  _6
REMARK    4  A    between atoms: _6  and  _7
REMARK    5  A    between atoms: _10  and  _12
REMARK    6  A    between atoms: _12  and  _13
REMARK    7  A    between atoms: _12  and  _15
REMARK    8  A    between atoms: _15  and  _16
REMARK    9  A    between atoms: _19  and  _21
REMARK   10  A    between atoms: _21  and  _22
REMARK   11  A    between atoms: _21  and  _24
REMARK   12  A    between atoms: _24  and  _25
REMARK   13  A    between atoms: _28  and  _30
REMARK   14  A    between atoms: _30  and  _31
REMARK   15  A    between atoms: _30  and  _33
REMARK   16  A    between atoms: _33  and  _34
REMARK   17  A    between atoms: _37  and  _39
REMARK   18  A    between atoms: _39  and  _40
REMARK   19  A    between atoms: _39  and  _42
REMARK   20  A    between atoms: _42  and  _43
REMARK   21  A    between atoms: _46  and  _48
REMARK   22  A    between atoms: _48  and  _49
REMARK   23  A    between atoms: _52  and  _54
REMARK   24  A    between atoms: _54  and  _55
REMARK   25  A    between atoms: _54  and  _57
REMARK   26  A    between atoms: _57  and  _58
REMARK   27  A    between atoms: _63  and  _64
REMARK   28  A    between atoms: _66  and  _68
REMARK   29  A    between atoms: _68  and  _69
REMARK   30  A    between atoms: _68  and  _71
REMARK   31  A    between atoms: _71  and  _72
REMARK   32  A    between atoms: _75  and  _77
REMARK   33  A    between atoms: _77  and  _78
REMARK   34  A    between atoms: _77  and  _80
REMARK   35  A    between atoms: _80  and  _81
REMARK   36  A    between atoms: _87  and  _89
REMARK   37  A    between atoms: _89  and  _90
REMARK   38  A    between atoms: _89  and  _92
REMARK   39  A    between atoms: _92  and  _93
REMARK   40  A    between atoms: _96  and  _98
REMARK   41  A    between atoms: _98  and  _99
REMARK   42  A    between atoms: _98  and  _101
REMARK   43  A    between atoms: _101  and  _102
REMARK   44  A    between atoms: _105  and  _107
REMARK   45  A    between atoms: _107  and  _108
REMARK   46  A    between atoms: _110  and  _112
REMARK   47  A    between atoms: _112  and  _113
REMARK   48  A    between atoms: _112  and  _115
REMARK   49  A    between atoms: _115  and  _116
REMARK   50  A    between atoms: _118  and  _120
REMARK   51  A    between atoms: _120  and  _121
REMARK   52  A    between atoms: _120  and  _123
REMARK   53  A    between atoms: _123  and  _124
REMARK   54  A    between atoms: _126  and  _128
REMARK   55  A    between atoms: _128  and  _129
REMARK   56  A    between atoms: _128  and  _131
REMARK   57  A    between atoms: _131  and  _132
REMARK   58  A    between atoms: _135  and  _137
REMARK   59  A    between atoms: _137  and  _138
REMARK   60  A    between atoms: _137  and  _140
REMARK   61  A    between atoms: _140  and  _141
REMARK   62  A    between atoms: _151  and  _153
REMARK   63  A    between atoms: _153  and  _154
REMARK   64  A    between atoms: _153  and  _156
REMARK   65  A    between atoms: _156  and  _157
REMARK   66  A    between atoms: _159  and  _161
REMARK   67  A    between atoms: _161  and  _162
REMARK   68  A    between atoms: _161  and  _164
REMARK   69  A    between atoms: _164  and  _165
REMARK   70  A    between atoms: _168  and  _170
REMARK   71  A    between atoms: _170  and  _171
REMARK   72  A    between atoms: _170  and  _173
REMARK   73  A    between atoms: _173  and  _174
REMARK   74  A    between atoms: _176  and  _178
REMARK   75  A    between atoms: _178  and  _179
REMARK   76  A    between atoms: _178  and  _181
REMARK   77  A    between atoms: _181  and  _182
REMARK   78  A    between atoms: _187  and  _188
REMARK   79  A    between atoms: _190  and  _192
REMARK   80  A    between atoms: _192  and  _193
REMARK   81  A    between atoms: _195  and  _197
REMARK   82  A    between atoms: _197  and  _198
REMARK   83  A    between atoms: _197  and  _200
REMARK   84  A    between atoms: _200  and  _201
REMARK   85  A    between atoms: _204  and  _206
REMARK   86  A    between atoms: _206  and  _207
REMARK   87  A    between atoms: _209  and  _211
REMARK   88  A    between atoms: _211  and  _212
REMARK   89  A    between atoms: _211  and  _214
REMARK   90  A    between atoms: _214  and  _215
REMARK   91  A    between atoms: _217  and  _219
REMARK   92  A    between atoms: _219  and  _220
REMARK   93  A    between atoms: _219  and  _222
REMARK   94  A    between atoms: _222  and  _223
REMARK   95  A    between atoms: _225  and  _227
REMARK   96  A    between atoms: _227  and  _228
REMARK   97  A    between atoms: _227  and  _230
REMARK   98  A    between atoms: _230  and  _231
REMARK   99  A    between atoms: _233  and  _235
REMARK  100  A    between atoms: _235  and  _236
REMARK  101  A    between atoms: _235  and  _238
REMARK  102  A    between atoms: _238  and  _239
REMARK  103  A    between atoms: _245  and  _247
REMARK  104  A    between atoms: _247  and  _248
REMARK  105  A    between atoms: _247  and  _250
REMARK  106  A    between atoms: _250  and  _251
REMARK  107  A    between atoms: _251  and  _252
REMARK  108  A    between atoms: _255  and  _257
REMARK  109  A    between atoms: _257  and  _258
REMARK  110  A    between atoms: _257  and  _260
REMARK  111  A    between atoms: _260  and  _261
REMARK  112  A    between atoms: _264  and  _266
REMARK  113  A    between atoms: _266  and  _267
REMARK  114  A    between atoms: _266  and  _269
REMARK  115  A    between atoms: _269  and  _270
REMARK  116  A    between atoms: _272  and  _274
REMARK  117  A    between atoms: _274  and  _275
REMARK  118  A    between atoms: _274  and  _277
REMARK  119  A    between atoms: _277  and  _278
REMARK  120  A    between atoms: _281  and  _283
REMARK  121  A    between atoms: _283  and  _284
REMARK  122  A    between atoms: _283  and  _286
REMARK  123  A    between atoms: _286  and  _287
REMARK  124  A    between atoms: _290  and  _292
REMARK  125  A    between atoms: _292  and  _293
REMARK  126  A    between atoms: _295  and  _297
REMARK  127  A    between atoms: _297  and  _298
REMARK  128  A    between atoms: _297  and  _300
REMARK  129  A    between atoms: _300  and  _301
REMARK  130  A    between atoms: _304  and  _306
REMARK  131  A    between atoms: _306  and  _307
REMARK  132  A    between atoms: _306  and  _309
REMARK  133  A    between atoms: _309  and  _310
REMARK  134  A    between atoms: _313  and  _315
REMARK  135  A    between atoms: _315  and  _316
REMARK  136  A    between atoms: _315  and  _318
REMARK  137  A    between atoms: _318  and  _319
REMARK  138  A    between atoms: _322  and  _324
REMARK  139  A    between atoms: _324  and  _325
REMARK  140  A    between atoms: _328  and  _330
REMARK  141  A    between atoms: _330  and  _331
REMARK  142  A    between atoms: _330  and  _333
REMARK  143  A    between atoms: _333  and  _334
REMARK  144  A    between atoms: _340  and  _342
REMARK  145  A    between atoms: _342  and  _343
REMARK  146  A    between atoms: _342  and  _345
REMARK  147  A    between atoms: _345  and  _346
REMARK  148  A    between atoms: _349  and  _351
REMARK  149  A    between atoms: _351  and  _352
REMARK  150  A    between atoms: _351  and  _354
REMARK  151  A    between atoms: _354  and  _355
REMARK  152  A    between atoms: _358  and  _360
REMARK  153  A    between atoms: _360  and  _361
REMARK  154  A    between atoms: _360  and  _363
REMARK  155  A    between atoms: _363  and  _364
REMARK  156  A    between atoms: _369  and  _371
REMARK  157  A    between atoms: _371  and  _372
REMARK  158  A    between atoms: _371  and  _374
REMARK  159  A    between atoms: _374  and  _375
REMARK  160  A    between atoms: _378  and  _380
REMARK  161  A    between atoms: _380  and  _381
REMARK  162  A    between atoms: _380  and  _383
REMARK  163  A    between atoms: _383  and  _384
REMARK  164  A    between atoms: _384  and  _385
REMARK  165  A    between atoms: _390  and  _392
REMARK  166  A    between atoms: _392  and  _393
REMARK  167  A    between atoms: _392  and  _395
REMARK  168  A    between atoms: _395  and  _396
REMARK  169  A    between atoms: _396  and  _397
REMARK  170  A    between atoms: _402  and  _404
REMARK  171  A    between atoms: _404  and  _405
REMARK  172  A    between atoms: _407  and  _409
REMARK  173  A    between atoms: _409  and  _410
REMARK  174  A    between atoms: _409  and  _412
REMARK  175  A    between atoms: _412  and  _413
REMARK  176  A    between atoms: _419  and  _421
REMARK  177  A    between atoms: _421  and  _422
REMARK  178  A    between atoms: _421  and  _424
REMARK  179  A    between atoms: _424  and  _425
REMARK  180  A    between atoms: _428  and  _430
REMARK  181  A    between atoms: _430  and  _431
REMARK  182  A    between atoms: _434  and  _436
REMARK  183  A    between atoms: _436  and  _437
REMARK  184  A    between atoms: _436  and  _439
REMARK  185  A    between atoms: _439  and  _440
REMARK  186  A    between atoms: _443  and  _445
REMARK  187  A    between atoms: _445  and  _446
REMARK  188  A    between atoms: _445  and  _448
REMARK  189  A    between atoms: _448  and  _449
REMARK  190  A    between atoms: _452  and  _454
REMARK  191  A    between atoms: _454  and  _455
REMARK  192  A    between atoms: _457  and  _459
REMARK  193  A    between atoms: _459  and  _460
REMARK  194  A    between atoms: _459  and  _462
REMARK  195  A    between atoms: _462  and  _463
REMARK  196  A    between atoms: _466  and  _468
REMARK  197  A    between atoms: _468  and  _469
REMARK  198  A    between atoms: _468  and  _471
REMARK  199  A    between atoms: _471  and  _472
REMARK  200  A    between atoms: _475  and  _477
REMARK  201  A    between atoms: _477  and  _478
REMARK  202  A    between atoms: _477  and  _480
REMARK  203  A    between atoms: _480  and  _481
REMARK  204  A    between atoms: _484  and  _486
REMARK  205  A    between atoms: _486  and  _487
REMARK  206  A    between atoms: _486  and  _489
REMARK  207  A    between atoms: _489  and  _490
REMARK  208  A    between atoms: _495  and  _496
REMARK  209  A    between atoms: _498  and  _500
REMARK  210  A    between atoms: _500  and  _501
REMARK  211  A    between atoms: _500  and  _503
REMARK  212  A    between atoms: _503  and  _504
REMARK  213  A    between atoms: _510  and  _512
REMARK  214  A    between atoms: _512  and  _513
REMARK  215  A    between atoms: _515  and  _517
REMARK  216  A    between atoms: _517  and  _518
REMARK  217  A    between atoms: _517  and  _520
REMARK  218  A    between atoms: _520  and  _521
REMARK  219  A    between atoms: _524  and  _526
REMARK  220  A    between atoms: _526  and  _527
REMARK  221  A    between atoms: _529  and  _531
REMARK  222  A    between atoms: _531  and  _532
REMARK  223  A    between atoms: _531  and  _534
REMARK  224  A    between atoms: _534  and  _535
REMARK  225  A    between atoms: _538  and  _540
REMARK  226  A    between atoms: _540  and  _541
REMARK  227  A    between atoms: _540  and  _543
REMARK  228  A    between atoms: _543  and  _544
REMARK  229  A    between atoms: _549  and  _551
REMARK  230  A    between atoms: _551  and  _552
REMARK  231  A    between atoms: _551  and  _554
REMARK  232  A    between atoms: _554  and  _555
REMARK  233  A    between atoms: _558  and  _560
REMARK  234  A    between atoms: _560  and  _561
REMARK  235  A    between atoms: _563  and  _565
REMARK  236  A    between atoms: _565  and  _566
REMARK  237  A    between atoms: _565  and  _568
REMARK  238  A    between atoms: _568  and  _569
REMARK                            x       y       z     vdW  Elec       q    Type
REMARK                         _______ _______ _______ _____ _____    ______ ____
ROOT
ATOM      1  O   HOH     1      -4.088   4.274   2.520  0.00  0.00    +0.000 OA
ENDROOT
TORSDOF 0
REMARK  Name = ../refined-set-2016/3prs/3prs_pocket.pdb
REMARK  238 active torsions:
REMARK  status: ('A' for Active; 'I' for Inactive)
REMARK    1  A    between atoms: _1  and  _3
REMARK    2  A    between atoms: _3  and  _4
REMARK    3  A    between atoms: _3  and  _6
REMARK    4  A    between atoms: _6  and  _7
REMARK    5  A    between atoms: _10  and  _12
REMARK    6  A    between atoms: _12  and  _13
REMARK    7  A    between atoms: _12  and  _15
REMARK    8  A    between atoms: _15  and  _16
REMARK    9  A    between atoms: _19  and  _21
REMARK   10  A    between atoms: _21  and  _22
REMARK   11  A    between atoms: _21  and  _24
REMARK   12  A    between atoms: _24  and  _25
REMARK   13  A    between atoms: _28  and  _30
REMARK   14  A    between atoms: _30  and  _31
REMARK   15  A    between atoms: _30  and  _33
REMARK   16  A    between atoms: _33  and  _34
REMARK   17  A    between atoms: _37  and  _39
REMARK   18  A    between atoms: _39  and  _40
REMARK   19  A    between atoms: _39  and  _42
REMARK   20  A    between atoms: _42  and  _43
REMARK   21  A    between atoms: _46  and  _48
REMARK   22  A    between atoms: _48  and  _49
REMARK   23  A    between atoms: _52  and  _54
REMARK   24  A    between atoms: _54  and  _55
REMARK   25  A    between atoms: _54  and  _57
REMARK   26  A    between atoms: _57  and  _58
REMARK   27  A    between atoms: _63  and  _64
REMARK   28  A    between atoms: _66  and  _68
REMARK   29  A    between atoms: _68  and  _69
REMARK   30  A    between atoms: _68  and  _71
REMARK   31  A    between atoms: _71  and  _72
REMARK   32  A    between atoms: _75  and  _77
REMARK   33  A    between atoms: _77  and  _78
REMARK   34  A    between atoms: _77  and  _80
REMARK   35  A    between atoms: _80  and  _81
REMARK   36  A    between atoms: _87  and  _89
REMARK   37  A    between atoms: _89  and  _90
REMARK   38  A    between atoms: _89  and  _92
REMARK   39  A    between atoms: _92  and  _93
REMARK   40  A    between atoms: _96  and  _98
REMARK   41  A    between atoms: _98  and  _99
REMARK   42  A    between atoms: _98  and  _101
REMARK   43  A    between atoms: _101  and  _102
REMARK   44  A    between atoms: _105  and  _107
REMARK   45  A    between atoms: _107  and  _108
REMARK   46  A    between atoms: _110  and  _112
REMARK   47  A    between atoms: _112  and  _113
REMARK   48  A    between atoms: _112  and  _115
REMARK   49  A    between atoms: _115  and  _116
REMARK   50  A    between atoms: _118  and  _120
REMARK   51  A    between atoms: _120  and  _121
REMARK   52  A    between atoms: _120  and  _123
REMARK   53  A    between atoms: _123  and  _124
REMARK   54  A    between atoms: _126  and  _128
REMARK   55  A    between atoms: _128  and  _129
REMARK   56  A    between atoms: _128  and  _131
REMARK   57  A    between atoms: _131  and  _132
REMARK   58  A    between atoms: _135  and  _137
REMARK   59  A    between atoms: _137  and  _138
REMARK   60  A    between atoms: _137  and  _140
REMARK   61  A    between atoms: _140  and  _141
REMARK   62  A    between atoms: _151  and  _153
REMARK   63  A    between atoms: _153  and  _154
REMARK   64  A    between atoms: _153  and  _156
REMARK   65  A    between atoms: _156  and  _157
REMARK   66  A    between atoms: _159  and  _161
REMARK   67  A    between atoms: _161  and  _162
REMARK   68  A    between atoms: _161  and  _164
REMARK   69  A    between atoms: _164  and  _165
REMARK   70  A    between atoms: _168  and  _170
REMARK   71  A    between atoms: _170  and  _171
REMARK   72  A    between atoms: _170  and  _173
REMARK   73  A    between atoms: _173  and  _174
REMARK   74  A    between atoms: _176  and  _178
REMARK   75  A    between atoms: _178  and  _179
REMARK   76  A    between atoms: _178  and  _181
REMARK   77  A    between atoms: _181  and  _182
REMARK   78  A    between atoms: _187  and  _188
REMARK   79  A    between atoms: _190  and  _192
REMARK   80  A    between atoms: _192  and  _193
REMARK   81  A    between atoms: _195  and  _197
REMARK   82  A    between atoms: _197  and  _198
REMARK   83  A    between atoms: _197  and  _200
REMARK   84  A    between atoms: _200  and  _201
REMARK   85  A    between atoms: _204  and  _206
REMARK   86  A    between atoms: _206  and  _207
REMARK   87  A    between atoms: _209  and  _211
REMARK   88  A    between atoms: _211  and  _212
REMARK   89  A    between atoms: _211  and  _214
REMARK   90  A    between atoms: _214  and  _215
REMARK   91  A    between atoms: _217  and  _219
REMARK   92  A    between atoms: _219  and  _220
REMARK   93  A    between atoms: _219  and  _222
REMARK   94  A    between atoms: _222  and  _223
REMARK   95  A    between atoms: _225  and  _227
REMARK   96  A    between atoms: _227  and  _228
REMARK   97  A    between atoms: _227  and  _230
REMARK   98  A    between atoms: _230  and  _231
REMARK   99  A    between atoms: _233  and  _235
REMARK  100  A    between atoms: _235  and  _236
REMARK  101  A    between atoms: _235  and  _238
REMARK  102  A    between atoms: _238  and  _239
REMARK  103  A    between atoms: _245  and  _247
REMARK  104  A    between atoms: _247  and  _248
REMARK  105  A    between atoms: _247  and  _250
REMARK  106  A    between atoms: _250  and  _251
REMARK  107  A    between atoms: _251  and  _252
REMARK  108  A    between atoms: _255  and  _257
REMARK  109  A    between atoms: _257  and  _258
REMARK  110  A    between atoms: _257  and  _260
REMARK  111  A    between atoms: _260  and  _261
REMARK  112  A    between atoms: _264  and  _266
REMARK  113  A    between atoms: _266  and  _267
REMARK  114  A    between atoms: _266  and  _269
REMARK  115  A    between atoms: _269  and  _270
REMARK  116  A    between atoms: _272  and  _274
REMARK  117  A    between atoms: _274  and  _275
REMARK  118  A    between atoms: _274  and  _277
REMARK  119  A    between atoms: _277  and  _278
REMARK  120  A    between atoms: _281  and  _283
REMARK  121  A    between atoms: _283  and  _284
REMARK  122  A    between atoms: _283  and  _286
REMARK  123  A    between atoms: _286  and  _287
REMARK  124  A    between atoms: _290  and  _292
REMARK  125  A    between atoms: _292  and  _293
REMARK  126  A    between atoms: _295  and  _297
REMARK  127  A    between atoms: _297  and  _298
REMARK  128  A    between atoms: _297  and  _300
REMARK  129  A    between atoms: _300  and  _301
REMARK  130  A    between atoms: _304  and  _306
REMARK  131  A    between atoms: _306  and  _307
REMARK  132  A    between atoms: _306  and  _309
REMARK  133  A    between atoms: _309  and  _310
REMARK  134  A    between atoms: _313  and  _315
REMARK  135  A    between atoms: _315  and  _316
REMARK  136  A    between atoms: _315  and  _318
REMARK  137  A    between atoms: _318  and  _319
REMARK  138  A    between atoms: _322  and  _324
REMARK  139  A    between atoms: _324  and  _325
REMARK  140  A    between atoms: _328  and  _330
REMARK  141  A    between atoms: _330  and  _331
REMARK  142  A    between atoms: _330  and  _333
REMARK  143  A    between atoms: _333  and  _334
REMARK  144  A    between atoms: _340  and  _342
REMARK  145  A    between atoms: _342  and  _343
REMARK  146  A    between atoms: _342  and  _345
REMARK  147  A    between atoms: _345  and  _346
REMARK  148  A    between atoms: _349  and  _351
REMARK  149  A    between atoms: _351  and  _352
REMARK  150  A    between atoms: _351  and  _354
REMARK  151  A    between atoms: _354  and  _355
REMARK  152  A    between atoms: _358  and  _360
REMARK  153  A    between atoms: _360  and  _361
REMARK  154  A    between atoms: _360  and  _363
REMARK  155  A    between atoms: _363  and  _364
REMARK  156  A    between atoms: _369  and  _371
REMARK  157  A    between atoms: _371  and  _372
REMARK  158  A    between atoms: _371  and  _374
REMARK  159  A    between atoms: _374  and  _375
REMARK  160  A    between atoms: _378  and  _380
REMARK  161  A    between atoms: _380  and  _381
REMARK  162  A    between atoms: _380  and  _383
REMARK  163  A    between atoms: _383  and  _384
REMARK  164  A    between atoms: _384  and  _385
REMARK  165  A    between atoms: _390  and  _392
REMARK  166  A    between atoms: _392  and  _393
REMARK  167  A    between atoms: _392  and  _395
REMARK  168  A    between atoms: _395  and  _396
REMARK  169  A    between atoms: _396  and  _397
REMARK  170  A    between atoms: _402  and  _404
REMARK  171  A    between atoms: _404  and  _405
REMARK  172  A    between atoms: _407  and  _409
REMARK  173  A    between atoms: _409  and  _410
REMARK  174  A    between atoms: _409  and  _412
REMARK  175  A    between atoms: _412  and  _413
REMARK  176  A    between atoms: _419  and  _421
REMARK  177  A    between atoms: _421  and  _422
REMARK  178  A    between atoms: _421  and  _424
REMARK  179  A    between atoms: _424  and  _425
REMARK  180  A    between atoms: _428  and  _430
REMARK  181  A    between atoms: _430  and  _431
REMARK  182  A    between atoms: _434  and  _436
REMARK  183  A    between atoms: _436  and  _437
REMARK  184  A    between atoms: _436  and  _439
REMARK  185  A    between atoms: _439  and  _440
REMARK  186  A    between atoms: _443  and  _445
REMARK  187  A    between atoms: _445  and  _446
REMARK  188  A    between atoms: _445  and  _448
REMARK  189  A    between atoms: _448  and  _449
REMARK  190  A    between atoms: _452  and  _454
REMARK  191  A    between atoms: _454  and  _455
REMARK  192  A    between atoms: _457  and  _459
REMARK  193  A    between atoms: _459  and  _460
REMARK  194  A    between atoms: _459  and  _462
REMARK  195  A    between atoms: _462  and  _463
REMARK  196  A    between atoms: _466  and  _468
REMARK  197  A    between atoms: _468  and  _469
REMARK  198  A    between atoms: _468  and  _471
REMARK  199  A    between atoms: _471  and  _472
REMARK  200  A    between atoms: _475  and  _477
REMARK  201  A    between atoms: _477  and  _478
REMARK  202  A    between atoms: _477  and  _480
REMARK  203  A    between atoms: _480  and  _481
REMARK  204  A    between atoms: _484  and  _486
REMARK  205  A    between atoms: _486  and  _487
REMARK  206  A    between atoms: _486  and  _489
REMARK  207  A    between atoms: _489  and  _490
REMARK  208  A    between atoms: _495  and  _496
REMARK  209  A    between atoms: _498  and  _500
REMARK  210  A    between atoms: _500  and  _501
REMARK  211  A    between atoms: _500  and  _503
REMARK  212  A    between atoms: _503  and  _504
REMARK  213  A    between atoms: _510  and  _512
REMARK  214  A    between atoms: _512  and  _513
REMARK  215  A    between atoms: _515  and  _517
REMARK  216  A    between atoms: _517  and  _518
REMARK  217  A    between atoms: _517  and  _520
REMARK  218  A    between atoms: _520  and  _521
REMARK  219  A    between atoms: _524  and  _526
REMARK  220  A    between atoms: _526  and  _527
REMARK  221  A    between atoms: _529  and  _531
REMARK  222  A    between atoms: _531  and  _532
REMARK  223  A    between atoms: _531  and  _534
REMARK  224  A    between atoms: _534  and  _535
REMARK  225  A    between atoms: _538  and  _540
REMARK  226  A    between atoms: _540  and  _541
REMARK  227  A    between atoms: _540  and  _543
REMARK  228  A    between atoms: _543  and  _544
REMARK  229  A    between atoms: _549  and  _551
REMARK  230  A    between atoms: _551  and  _552
REMARK  231  A    between atoms: _551  and  _554
REMARK  232  A    between atoms: _554  and  _555
REMARK  233  A    between atoms: _558  and  _560
REMARK  234  A    between atoms: _560  and  _561
REMARK  235  A    between atoms: _563  and  _565
REMARK  236  A    between atoms: _565  and  _566
REMARK  237  A    between atoms: _565  and  _568
REMARK  238  A    between atoms: _568  and  _569
REMARK                            x       y       z     vdW  Elec       q    Type
REMARK                         _______ _______ _______ _____ _____    ______ ____
ROOT
ATOM      1  O   HOH     1       1.266  -3.564   5.367  0.00  0.00    +0.000 OA
ENDROOT
TORSDOF 0
REMARK  Name = ../refined-set-2016/3prs/3prs_pocket.pdb
REMARK  238 active torsions:
REMARK  status: ('A' for Active; 'I' for Inactive)
REMARK    1  A    between atoms: _1  and  _3
REMARK    2  A    between atoms: _3  and  _4
REMARK    3  A    between atoms: _3  and  _6
REMARK    4  A    between atoms: _6  and  _7
REMARK    5  A    between atoms: _10  and  _12
REMARK    6  A    between atoms: _12  and  _13
REMARK    7  A    between atoms: _12  and  _15
REMARK    8  A    between atoms: _15  and  _16
REMARK    9  A    between atoms: _19  and  _21
REMARK   10  A    between atoms: _21  and  _22
REMARK   11  A    between atoms: _21  and  _24
REMARK   12  A    between atoms: _24  and  _25
REMARK   13  A    between atoms: _28  and  _30
REMARK   14  A    between atoms: _30  and  _31
REMARK   15  A    between atoms: _30  and  _33
REMARK   16  A    between atoms: _33  and  _34
REMARK   17  A    between atoms: _37  and  _39
REMARK   18  A    between atoms: _39  and  _40
REMARK   19  A    between atoms: _39  and  _42
REMARK   20  A    between atoms: _42  and  _43
REMARK   21  A    between atoms: _46  and  _48
REMARK   22  A    between atoms: _48  and  _49
REMARK   23  A    between atoms: _52  and  _54
REMARK   24  A    between atoms: _54  and  _55
REMARK   25  A    between atoms: _54  and  _57
REMARK   26  A    between atoms: _57  and  _58
REMARK   27  A    between atoms: _63  and  _64
REMARK   28  A    between atoms: _66  and  _68
REMARK   29  A    between atoms: _68  and  _69
REMARK   30  A    between atoms: _68  and  _71
REMARK   31  A    between atoms: _71  and  _72
REMARK   32  A    between atoms: _75  and  _77
REMARK   33  A    between atoms: _77  and  _78
REMARK   34  A    between atoms: _77  and  _80
REMARK   35  A    between atoms: _80  and  _81
REMARK   36  A    between atoms: _87  and  _89
REMARK   37  A    between atoms: _89  and  _90
REMARK   38  A    between atoms: _89  and  _92
REMARK   39  A    between atoms: _92  and  _93
REMARK   40  A    between atoms: _96  and  _98
REMARK   41  A    between atoms: _98  and  _99
REMARK   42  A    between atoms: _98  and  _101
REMARK   43  A    between atoms: _101  and  _102
REMARK   44  A    between atoms: _105  and  _107
REMARK   45  A    between atoms: _107  and  _108
REMARK   46  A    between atoms: _110  and  _112
REMARK   47  A    between atoms: _112  and  _113
REMARK   48  A    between atoms: _112  and  _115
REMARK   49  A    between atoms: _115  and  _116
REMARK   50  A    between atoms: _118  and  _120
REMARK   51  A    between atoms: _120  and  _121
REMARK   52  A    between atoms: _120  and  _123
REMARK   53  A    between atoms: _123  and  _124
REMARK   54  A    between atoms: _126  and  _128
REMARK   55  A    between atoms: _128  and  _129
REMARK   56  A    between atoms: _128  and  _131
REMARK   57  A    between atoms: _131  and  _132
REMARK   58  A    between atoms: _135  and  _137
REMARK   59  A    between atoms: _137  and  _138
REMARK   60  A    between atoms: _137  and  _140
REMARK   61  A    between atoms: _140  and  _141
REMARK   62  A    between atoms: _151  and  _153
REMARK   63  A    between atoms: _153  and  _154
REMARK   64  A    between atoms: _153  and  _156
REMARK   65  A    between atoms: _156  and  _157
REMARK   66  A    between atoms: _159  and  _161
REMARK   67  A    between atoms: _161  and  _162
REMARK   68  A    between atoms: _161  and  _164
REMARK   69  A    between atoms: _164  and  _165
REMARK   70  A    between atoms: _168  and  _170
REMARK   71  A    between atoms: _170  and  _171
REMARK   72  A    between atoms: _170  and  _173
REMARK   73  A    between atoms: _173  and  _174
REMARK   74  A    between atoms: _176  and  _178
REMARK   75  A    between atoms: _178  and  _179
REMARK   76  A    between atoms: _178  and  _181
REMARK   77  A    between atoms: _181  and  _182
REMARK   78  A    between atoms: _187  and  _188
REMARK   79  A    between atoms: _190  and  _192
REMARK   80  A    between atoms: _192  and  _193
REMARK   81  A    between atoms: _195  and  _197
REMARK   82  A    between atoms: _197  and  _198
REMARK   83  A    between atoms: _197  and  _200
REMARK   84  A    between atoms: _200  and  _201
REMARK   85  A    between atoms: _204  and  _206
REMARK   86  A    between atoms: _206  and  _207
REMARK   87  A    between atoms: _209  and  _211
REMARK   88  A    between atoms: _211  and  _212
REMARK   89  A    between atoms: _211  and  _214
REMARK   90  A    between atoms: _214  and  _215
REMARK   91  A    between atoms: _217  and  _219
REMARK   92  A    between atoms: _219  and  _220
REMARK   93  A    between atoms: _219  and  _222
REMARK   94  A    between atoms: _222  and  _223
REMARK   95  A    between atoms: _225  and  _227
REMARK   96  A    between atoms: _227  and  _228
REMARK   97  A    between atoms: _227  and  _230
REMARK   98  A    between atoms: _230  and  _231
REMARK   99  A    between atoms: _233  and  _235
REMARK  100  A    between atoms: _235  and  _236
REMARK  101  A    between atoms: _235  and  _238
REMARK  102  A    between atoms: _238  and  _239
REMARK  103  A    between atoms: _245  and  _247
REMARK  104  A    between atoms: _247  and  _248
REMARK  105  A    between atoms: _247  and  _250
REMARK  106  A    between atoms: _250  and  _251
REMARK  107  A    between atoms: _251  and  _252
REMARK  108  A    between atoms: _255  and  _257
REMARK  109  A    between atoms: _257  and  _258
REMARK  110  A    between atoms: _257  and  _260
REMARK  111  A    between atoms: _260  and  _261
REMARK  112  A    between atoms: _264  and  _266
REMARK  113  A    between atoms: _266  and  _267
REMARK  114  A    between atoms: _266  and  _269
REMARK  115  A    between atoms: _269  and  _270
REMARK  116  A    between atoms: _272  and  _274
REMARK  117  A    between atoms: _274  and  _275
REMARK  118  A    between atoms: _274  and  _277
REMARK  119  A    between atoms: _277  and  _278
REMARK  120  A    between atoms: _281  and  _283
REMARK  121  A    between atoms: _283  and  _284
REMARK  122  A    between atoms: _283  and  _286
REMARK  123  A    between atoms: _286  and  _287
REMARK  124  A    between atoms: _290  and  _292
REMARK  125  A    between atoms: _292  and  _293
REMARK  126  A    between atoms: _295  and  _297
REMARK  127  A    between atoms: _297  and  _298
REMARK  128  A    between atoms: _297  and  _300
REMARK  129  A    between atoms: _300  and  _301
REMARK  130  A    between atoms: _304  and  _306
REMARK  131  A    between atoms: _306  and  _307
REMARK  132  A    between atoms: _306  and  _309
REMARK  133  A    between atoms: _309  and  _310
REMARK  134  A    between atoms: _313  and  _315
REMARK  135  A    between atoms: _315  and  _316
REMARK  136  A    between atoms: _315  and  _318
REMARK  137  A    between atoms: _318  and  _319
REMARK  138  A    between atoms: _322  and  _324
REMARK  139  A    between atoms: _324  and  _325
REMARK  140  A    between atoms: _328  and  _330
REMARK  141  A    between atoms: _330  and  _331
REMARK  142  A    between atoms: _330  and  _333
REMARK  143  A    between atoms: _333  and  _334
REMARK  144  A    between atoms: _340  and  _342
REMARK  145  A    between atoms: _342  and  _343
REMARK  146  A    between atoms: _342  and  _345
REMARK  147  A    between atoms: _345  and  _346
REMARK  148  A    between atoms: _349  and  _351
REMARK  149  A    between atoms: _351  and  _352
REMARK  150  A    between atoms: _351  and  _354
REMARK  151  A    between atoms: _354  and  _355
REMARK  152  A    between atoms: _358  and  _360
REMARK  153  A    between atoms: _360  and  _361
REMARK  154  A    between atoms: _360  and  _363
REMARK  155  A    between atoms: _363  and  _364
REMARK  156  A    between atoms: _369  and  _371
REMARK  157  A    between atoms: _371  and  _372
REMARK  158  A    between atoms: _371  and  _374
REMARK  159  A    between atoms: _374  and  _375
REMARK  160  A    between atoms: _378  and  _380
REMARK  161  A    between atoms: _380  and  _381
REMARK  162  A    between atoms: _380  and  _383
REMARK  163  A    between atoms: _383  and  _384
REMARK  164  A    between atoms: _384  and  _385
REMARK  165  A    between atoms: _390  and  _392
REMARK  166  A    between atoms: _392  and  _393
REMARK  167  A    between atoms: _392  and  _395
REMARK  168  A    between atoms: _395  and  _396
REMARK  169  A    between atoms: _396  and  _397
REMARK  170  A    between atoms: _402  and  _404
REMARK  171  A    between atoms: _404  and  _405
REMARK  172  A    between atoms: _407  and  _409
REMARK  173  A    between atoms: _409  and  _410
REMARK  174  A    between atoms: _409  and  _412
REMARK  175  A    between atoms: _412  and  _413
REMARK  176  A    between atoms: _419  and  _421
REMARK  177  A    between atoms: _421  and  _422
REMARK  178  A    between atoms: _421  and  _424
REMARK  179  A    between atoms: _424  and  _425
REMARK  180  A    between atoms: _428  and  _430
REMARK  181  A    between atoms: _430  and  _431
REMARK  182  A    between atoms: _434  and  _436
REMARK  183  A    between atoms: _436  and  _437
REMARK  184  A    between atoms: _436  and  _439
REMARK  185  A    between atoms: _439  and  _440
REMARK  186  A    between atoms: _443  and  _445
REMARK  187  A    between atoms: _445  and  _446
REMARK  188  A    between atoms: _445  and  _448
REMARK  189  A    between atoms: _448  and  _449
REMARK  190  A    between atoms: _452  and  _454
REMARK  191  A    between atoms: _454  and  _455
REMARK  192  A    between atoms: _457  and  _459
REMARK  193  A    between atoms: _459  and  _460
REMARK  194  A    between atoms: _459  and  _462
REMARK  195  A    between atoms: _462  and  _463
REMARK  196  A    between atoms: _466  and  _468
REMARK  197  A    between atoms: _468  and  _469
REMARK  198  A    between atoms: _468  and  _471
REMARK  199  A    between atoms: _471  and  _472
REMARK  200  A    between atoms: _475  and  _477
REMARK  201  A    between atoms: _477  and  _478
REMARK  202  A    between atoms: _477  and  _480
REMARK  203  A    between atoms: _480  and  _481
REMARK  204  A    between atoms: _484  and  _486
REMARK  205  A    between atoms: _486  and  _487
REMARK  206  A    between atoms: _486  and  _489
REMARK  207  A    between atoms: _489  and  _490
REMARK  208  A    between atoms: _495  and  _496
REMARK  209  A    between atoms: _498  and  _500
REMARK  210  A    between atoms: _500  and  _501
REMARK  211  A    between atoms: _500  and  _503
REMARK  212  A    between atoms: _503  and  _504
REMARK  213  A    between atoms: _510  and  _512
REMARK  214  A    between atoms: _512  and  _513
REMARK  215  A    between atoms: _515  and  _517
REMARK  216  A    between atoms: _517  and  _518
REMARK  217  A    between atoms: _517  and  _520
REMARK  218  A    between atoms: _520  and  _521
REMARK  219  A    between atoms: _524  and  _526
REMARK  220  A    between atoms: _526  and  _527
REMARK  221  A    between atoms: _529  and  _531
REMARK  222  A    between atoms: _531  and  _532
REMARK  223  A    between atoms: _531  and  _534
REMARK  224  A    between atoms: _534  and  _535
REMARK  225  A    between atoms: _538  and  _540
REMARK  226  A    between atoms: _540  and  _541
REMARK  227  A    between atoms: _540  and  _543
REMARK  228  A    between atoms: _543  and  _544
REMARK  229  A    between atoms: _549  and  _551
REMARK  230  A    between atoms: _551  and  _552
REMARK  231  A    between atoms: _551  and  _554
REMARK  232  A    between atoms: _554  and  _555
REMARK  233  A    between atoms: _558  and  _560
REMARK  234  A    between atoms: _560  and  _561
REMARK  235  A    between atoms: _563  and  _565
REMARK  236  A    between atoms: _565  and  _566
REMARK  237  A    between atoms: _565  and  _568
REMARK  238  A    between atoms: _568  and  _569
REMARK                            x       y       z     vdW  Elec       q    Type
REMARK                         _______ _______ _______ _____ _____    ______ ____
ROOT
ATOM      1  O   HOH     1       8.967   6.006   6.932  0.00  0.00    +0.000 OA
ENDROOT
TORSDOF 0
REMARK  Name = ../refined-set-2016/3prs/3prs_pocket.pdb
REMARK  238 active torsions:
REMARK  status: ('A' for Active; 'I' for Inactive)
REMARK    1  A    between atoms: _1  and  _3
REMARK    2  A    between atoms: _3  and  _4
REMARK    3  A    between atoms: _3  and  _6
REMARK    4  A    between atoms: _6  and  _7
REMARK    5  A    between atoms: _10  and  _12
REMARK    6  A    between atoms: _12  and  _13
REMARK    7  A    between atoms: _12  and  _15
REMARK    8  A    between atoms: _15  and  _16
REMARK    9  A    between atoms: _19  and  _21
REMARK   10  A    between atoms: _21  and  _22
REMARK   11  A    between atoms: _21  and  _24
REMARK   12  A    between atoms: _24  and  _25
REMARK   13  A    between atoms: _28  and  _30
REMARK   14  A    between atoms: _30  and  _31
REMARK   15  A    between atoms: _30  and  _33
REMARK   16  A    between atoms: _33  and  _34
REMARK   17  A    between atoms: _37  and  _39
REMARK   18  A    between atoms: _39  and  _40
REMARK   19  A    between atoms: _39  and  _42
REMARK   20  A    between atoms: _42  and  _43
REMARK   21  A    between atoms: _46  and  _48
REMARK   22  A    between atoms: _48  and  _49
REMARK   23  A    between atoms: _52  and  _54
REMARK   24  A    between atoms: _54  and  _55
REMARK   25  A    between atoms: _54  and  _57
REMARK   26  A    between atoms: _57  and  _58
REMARK   27  A    between atoms: _63  and  _64
REMARK   28  A    between atoms: _66  and  _68
REMARK   29  A    between atoms: _68  and  _69
REMARK   30  A    between atoms: _68  and  _71
REMARK   31  A    between atoms: _71  and  _72
REMARK   32  A    between atoms: _75  and  _77
REMARK   33  A    between atoms: _77  and  _78
REMARK   34  A    between atoms: _77  and  _80
REMARK   35  A    between atoms: _80  and  _81
REMARK   36  A    between atoms: _87  and  _89
REMARK   37  A    between atoms: _89  and  _90
REMARK   38  A    between atoms: _89  and  _92
REMARK   39  A    between atoms: _92  and  _93
REMARK   40  A    between atoms: _96  and  _98
REMARK   41  A    between atoms: _98  and  _99
REMARK   42  A    between atoms: _98  and  _101
REMARK   43  A    between atoms: _101  and  _102
REMARK   44  A    between atoms: _105  and  _107
REMARK   45  A    between atoms: _107  and  _108
REMARK   46  A    between atoms: _110  and  _112
REMARK   47  A    between atoms: _112  and  _113
REMARK   48  A    between atoms: _112  and  _115
REMARK   49  A    between atoms: _115  and  _116
REMARK   50  A    between atoms: _118  and  _120
REMARK   51  A    between atoms: _120  and  _121
REMARK   52  A    between atoms: _120  and  _123
REMARK   53  A    between atoms: _123  and  _124
REMARK   54  A    between atoms: _126  and  _128
REMARK   55  A    between atoms: _128  and  _129
REMARK   56  A    between atoms: _128  and  _131
REMARK   57  A    between atoms: _131  and  _132
REMARK   58  A    between atoms: _135  and  _137
REMARK   59  A    between atoms: _137  and  _138
REMARK   60  A    between atoms: _137  and  _140
REMARK   61  A    between atoms: _140  and  _141
REMARK   62  A    between atoms: _151  and  _153
REMARK   63  A    between atoms: _153  and  _154
REMARK   64  A    between atoms: _153  and  _156
REMARK   65  A    between atoms: _156  and  _157
REMARK   66  A    between atoms: _159  and  _161
REMARK   67  A    between atoms: _161  and  _162
REMARK   68  A    between atoms: _161  and  _164
REMARK   69  A    between atoms: _164  and  _165
REMARK   70  A    between atoms: _168  and  _170
REMARK   71  A    between atoms: _170  and  _171
REMARK   72  A    between atoms: _170  and  _173
REMARK   73  A    between atoms: _173  and  _174
REMARK   74  A    between atoms: _176  and  _178
REMARK   75  A    between atoms: _178  and  _179
REMARK   76  A    between atoms: _178  and  _181
REMARK   77  A    between atoms: _181  and  _182
REMARK   78  A    between atoms: _187  and  _188
REMARK   79  A    between atoms: _190  and  _192
REMARK   80  A    between atoms: _192  and  _193
REMARK   81  A    between atoms: _195  and  _197
REMARK   82  A    between atoms: _197  and  _198
REMARK   83  A    between atoms: _197  and  _200
REMARK   84  A    between atoms: _200  and  _201
REMARK   85  A    between atoms: _204  and  _206
REMARK   86  A    between atoms: _206  and  _207
REMARK   87  A    between atoms: _209  and  _211
REMARK   88  A    between atoms: _211  and  _212
REMARK   89  A    between atoms: _211  and  _214
REMARK   90  A    between atoms: _214  and  _215
REMARK   91  A    between atoms: _217  and  _219
REMARK   92  A    between atoms: _219  and  _220
REMARK   93  A    between atoms: _219  and  _222
REMARK   94  A    between atoms: _222  and  _223
REMARK   95  A    between atoms: _225  and  _227
REMARK   96  A    between atoms: _227  and  _228
REMARK   97  A    between atoms: _227  and  _230
REMARK   98  A    between atoms: _230  and  _231
REMARK   99  A    between atoms: _233  and  _235
REMARK  100  A    between atoms: _235  and  _236
REMARK  101  A    between atoms: _235  and  _238
REMARK  102  A    between atoms: _238  and  _239
REMARK  103  A    between atoms: _245  and  _247
REMARK  104  A    between atoms: _247  and  _248
REMARK  105  A    between atoms: _247  and  _250
REMARK  106  A    between atoms: _250  and  _251
REMARK  107  A    between atoms: _251  and  _252
REMARK  108  A    between atoms: _255  and  _257
REMARK  109  A    between atoms: _257  and  _258
REMARK  110  A    between atoms: _257  and  _260
REMARK  111  A    between atoms: _260  and  _261
REMARK  112  A    between atoms: _264  and  _266
REMARK  113  A    between atoms: _266  and  _267
REMARK  114  A    between atoms: _266  and  _269
REMARK  115  A    between atoms: _269  and  _270
REMARK  116  A    between atoms: _272  and  _274
REMARK  117  A    between atoms: _274  and  _275
REMARK  118  A    between atoms: _274  and  _277
REMARK  119  A    between atoms: _277  and  _278
REMARK  120  A    between atoms: _281  and  _283
REMARK  121  A    between atoms: _283  and  _284
REMARK  122  A    between atoms: _283  and  _286
REMARK  123  A    between atoms: _286  and  _287
REMARK  124  A    between atoms: _290  and  _292
REMARK  125  A    between atoms: _292  and  _293
REMARK  126  A    between atoms: _295  and  _297
REMARK  127  A    between atoms: _297  and  _298
REMARK  128  A    between atoms: _297  and  _300
REMARK  129  A    between atoms: _300  and  _301
REMARK  130  A    between atoms: _304  and  _306
REMARK  131  A    between atoms: _306  and  _307
REMARK  132  A    between atoms: _306  and  _309
REMARK  133  A    between atoms: _309  and  _310
REMARK  134  A    between atoms: _313  and  _315
REMARK  135  A    between atoms: _315  and  _316
REMARK  136  A    between atoms: _315  and  _318
REMARK  137  A    between atoms: _318  and  _319
REMARK  138  A    between atoms: _322  and  _324
REMARK  139  A    between atoms: _324  and  _325
REMARK  140  A    between atoms: _328  and  _330
REMARK  141  A    between atoms: _330  and  _331
REMARK  142  A    between atoms: _330  and  _333
REMARK  143  A    between atoms: _333  and  _334
REMARK  144  A    between atoms: _340  and  _342
REMARK  145  A    between atoms: _342  and  _343
REMARK  146  A    between atoms: _342  and  _345
REMARK  147  A    between atoms: _345  and  _346
REMARK  148  A    between atoms: _349  and  _351
REMARK  149  A    between atoms: _351  and  _352
REMARK  150  A    between atoms: _351  and  _354
REMARK  151  A    between atoms: _354  and  _355
REMARK  152  A    between atoms: _358  and  _360
REMARK  153  A    between atoms: _360  and  _361
REMARK  154  A    between atoms: _360  and  _363
REMARK  155  A    between atoms: _363  and  _364
REMARK  156  A    between atoms: _369  and  _371
REMARK  157  A    between atoms: _371  and  _372
REMARK  158  A    between atoms: _371  and  _374
REMARK  159  A    between atoms: _374  and  _375
REMARK  160  A    between atoms: _378  and  _380
REMARK  161  A    between atoms: _380  and  _381
REMARK  162  A    between atoms: _380  and  _383
REMARK  163  A    between atoms: _383  and  _384
REMARK  164  A    between atoms: _384  and  _385
REMARK  165  A    between atoms: _390  and  _392
REMARK  166  A    between atoms: _392  and  _393
REMARK  167  A    between atoms: _392  and  _395
REMARK  168  A    between atoms: _395  and  _396
REMARK  169  A    between atoms: _396  and  _397
REMARK  170  A    between atoms: _402  and  _404
REMARK  171  A    between atoms: _404  and  _405
REMARK  172  A    between atoms: _407  and  _409
REMARK  173  A    between atoms: _409  and  _410
REMARK  174  A    between atoms: _409  and  _412
REMARK  175  A    between atoms: _412  and  _413
REMARK  176  A    between atoms: _419  and  _421
REMARK  177  A    between atoms: _421  and  _422
REMARK  178  A    between atoms: _421  and  _424
REMARK  179  A    between atoms: _424  and  _425
REMARK  180  A    between atoms: _428  and  _430
REMARK  181  A    between atoms: _430  and  _431
REMARK  182  A    between atoms: _434  and  _436
REMARK  183  A    between atoms: _436  and  _437
REMARK  184  A    between atoms: _436  and  _439
REMARK  185  A    between atoms: _439  and  _440
REMARK  186  A    between atoms: _443  and  _445
REMARK  187  A    between atoms: _445  and  _446
REMARK  188  A    between atoms: _445  and  _448
REMARK  189  A    between atoms: _448  and  _449
REMARK  190  A    between atoms: _452  and  _454
REMARK  191  A    between atoms: _454  and  _455
REMARK  192  A    between atoms: _457  and  _459
REMARK  193  A    between atoms: _459  and  _460
REMARK  194  A    between atoms: _459  and  _462
REMARK  195  A    between atoms: _462  and  _463
REMARK  196  A    between atoms: _466  and  _468
REMARK  197  A    between atoms: _468  and  _469
REMARK  198  A    between atoms: _468  and  _471
REMARK  199  A    between atoms: _471  and  _472
REMARK  200  A    between atoms: _475  and  _477
REMARK  201  A    between atoms: _477  and  _478
REMARK  202  A    between atoms: _477  and  _480
REMARK  203  A    between atoms: _480  and  _481
REMARK  204  A    between atoms: _484  and  _486
REMARK  205  A    between atoms: _486  and  _487
REMARK  206  A    between atoms: _486  and  _489
REMARK  207  A    between atoms: _489  and  _490
REMARK  208  A    between atoms: _495  and  _496
REMARK  209  A    between atoms: _498  and  _500
REMARK  210  A    between atoms: _500  and  _501
REMARK  211  A    between atoms: _500  and  _503
REMARK  212  A    between atoms: _503  and  _504
REMARK  213  A    between atoms: _510  and  _512
REMARK  214  A    between atoms: _512  and  _513
REMARK  215  A    between atoms: _515  and  _517
REMARK  216  A    between atoms: _517  and  _518
REMARK  217  A    between atoms: _517  and  _520
REMARK  218  A    between atoms: _520  and  _521
REMARK  219  A    between atoms: _524  and  _526
REMARK  220  A    between atoms: _526  and  _527
REMARK  221  A    between atoms: _529  and  _531
REMARK  222  A    between atoms: _531  and  _532
REMARK  223  A    between atoms: _531  and  _534
REMARK  224  A    between atoms: _534  and  _535
REMARK  225  A    between atoms: _538  and  _540
REMARK  226  A    between atoms: _540  and  _541
REMARK  227  A    between atoms: _540  and  _543
REMARK  228  A    between atoms: _543  and  _544
REMARK  229  A    between atoms: _549  and  _551
REMARK  230  A    between atoms: _551  and  _552
REMARK  231  A    between atoms: _551  and  _554
REMARK  232  A    between atoms: _554  and  _555
REMARK  233  A    between atoms: _558  and  _560
REMARK  234  A    between atoms: _560  and  _561
REMARK  235  A    between atoms: _563  and  _565
REMARK  236  A    between atoms: _565  and  _566
REMARK  237  A    between atoms: _565  and  _568
REMARK  238  A    between atoms: _568  and  _569
REMARK                            x       y       z     vdW  Elec       q    Type
REMARK                         _______ _______ _______ _____ _____    ______ ____
ROOT
ATOM      1  O   HOH     1      -1.159  -0.980   4.363  0.00  0.00    +0.000 OA
ENDROOT
TORSDOF 0
REMARK  Name = ../refined-set-2016/3prs/3prs_pocket.pdb
REMARK  238 active torsions:
REMARK  status: ('A' for Active; 'I' for Inactive)
REMARK    1  A    between atoms: _1  and  _3
REMARK    2  A    between atoms: _3  and  _4
REMARK    3  A    between atoms: _3  and  _6
REMARK    4  A    between atoms: _6  and  _7
REMARK    5  A    between atoms: _10  and  _12
REMARK    6  A    between atoms: _12  and  _13
REMARK    7  A    between atoms: _12  and  _15
REMARK    8  A    between atoms: _15  and  _16
REMARK    9  A    between atoms: _19  and  _21
REMARK   10  A    between atoms: _21  and  _22
REMARK   11  A    between atoms: _21  and  _24
REMARK   12  A    between atoms: _24  and  _25
REMARK   13  A    between atoms: _28  and  _30
REMARK   14  A    between atoms: _30  and  _31
REMARK   15  A    between atoms: _30  and  _33
REMARK   16  A    between atoms: _33  and  _34
REMARK   17  A    between atoms: _37  and  _39
REMARK   18  A    between atoms: _39  and  _40
REMARK   19  A    between atoms: _39  and  _42
REMARK   20  A    between atoms: _42  and  _43
REMARK   21  A    between atoms: _46  and  _48
REMARK   22  A    between atoms: _48  and  _49
REMARK   23  A    between atoms: _52  and  _54
REMARK   24  A    between atoms: _54  and  _55
REMARK   25  A    between atoms: _54  and  _57
REMARK   26  A    between atoms: _57  and  _58
REMARK   27  A    between atoms: _63  and  _64
REMARK   28  A    between atoms: _66  and  _68
REMARK   29  A    between atoms: _68  and  _69
REMARK   30  A    between atoms: _68  and  _71
REMARK   31  A    between atoms: _71  and  _72
REMARK   32  A    between atoms: _75  and  _77
REMARK   33  A    between atoms: _77  and  _78
REMARK   34  A    between atoms: _77  and  _80
REMARK   35  A    between atoms: _80  and  _81
REMARK   36  A    between atoms: _87  and  _89
REMARK   37  A    between atoms: _89  and  _90
REMARK   38  A    between atoms: _89  and  _92
REMARK   39  A    between atoms: _92  and  _93
REMARK   40  A    between atoms: _96  and  _98
REMARK   41  A    between atoms: _98  and  _99
REMARK   42  A    between atoms: _98  and  _101
REMARK   43  A    between atoms: _101  and  _102
REMARK   44  A    between atoms: _105  and  _107
REMARK   45  A    between atoms: _107  and  _108
REMARK   46  A    between atoms: _110  and  _112
REMARK   47  A    between atoms: _112  and  _113
REMARK   48  A    between atoms: _112  and  _115
REMARK   49  A    between atoms: _115  and  _116
REMARK   50  A    between atoms: _118  and  _120
REMARK   51  A    between atoms: _120  and  _121
REMARK   52  A    between atoms: _120  and  _123
REMARK   53  A    between atoms: _123  and  _124
REMARK   54  A    between atoms: _126  and  _128
REMARK   55  A    between atoms: _128  and  _129
REMARK   56  A    between atoms: _128  and  _131
REMARK   57  A    between atoms: _131  and  _132
REMARK   58  A    between atoms: _135  and  _137
REMARK   59  A    between atoms: _137  and  _138
REMARK   60  A    between atoms: _137  and  _140
REMARK   61  A    between atoms: _140  and  _141
REMARK   62  A    between atoms: _151  and  _153
REMARK   63  A    between atoms: _153  and  _154
REMARK   64  A    between atoms: _153  and  _156
REMARK   65  A    between atoms: _156  and  _157
REMARK   66  A    between atoms: _159  and  _161
REMARK   67  A    between atoms: _161  and  _162
REMARK   68  A    between atoms: _161  and  _164
REMARK   69  A    between atoms: _164  and  _165
REMARK   70  A    between atoms: _168  and  _170
REMARK   71  A    between atoms: _170  and  _171
REMARK   72  A    between atoms: _170  and  _173
REMARK   73  A    between atoms: _173  and  _174
REMARK   74  A    between atoms: _176  and  _178
REMARK   75  A    between atoms: _178  and  _179
REMARK   76  A    between atoms: _178  and  _181
REMARK   77  A    between atoms: _181  and  _182
REMARK   78  A    between atoms: _187  and  _188
REMARK   79  A    between atoms: _190  and  _192
REMARK   80  A    between atoms: _192  and  _193
REMARK   81  A    between atoms: _195  and  _197
REMARK   82  A    between atoms: _197  and  _198
REMARK   83  A    between atoms: _197  and  _200
REMARK   84  A    between atoms: _200  and  _201
REMARK   85  A    between atoms: _204  and  _206
REMARK   86  A    between atoms: _206  and  _207
REMARK   87  A    between atoms: _209  and  _211
REMARK   88  A    between atoms: _211  and  _212
REMARK   89  A    between atoms: _211  and  _214
REMARK   90  A    between atoms: _214  and  _215
REMARK   91  A    between atoms: _217  and  _219
REMARK   92  A    between atoms: _219  and  _220
REMARK   93  A    between atoms: _219  and  _222
REMARK   94  A    between atoms: _222  and  _223
REMARK   95  A    between atoms: _225  and  _227
REMARK   96  A    between atoms: _227  and  _228
REMARK   97  A    between atoms: _227  and  _230
REMARK   98  A    between atoms: _230  and  _231
REMARK   99  A    between atoms: _233  and  _235
REMARK  100  A    between atoms: _235  and  _236
REMARK  101  A    between atoms: _235  and  _238
REMARK  102  A    between atoms: _238  and  _239
REMARK  103  A    between atoms: _245  and  _247
REMARK  104  A    between atoms: _247  and  _248
REMARK  105  A    between atoms: _247  and  _250
REMARK  106  A    between atoms: _250  and  _251
REMARK  107  A    between atoms: _251  and  _252
REMARK  108  A    between atoms: _255  and  _257
REMARK  109  A    between atoms: _257  and  _258
REMARK  110  A    between atoms: _257  and  _260
REMARK  111  A    between atoms: _260  and  _261
REMARK  112  A    between atoms: _264  and  _266
REMARK  113  A    between atoms: _266  and  _267
REMARK  114  A    between atoms: _266  and  _269
REMARK  115  A    between atoms: _269  and  _270
REMARK  116  A    between atoms: _272  and  _274
REMARK  117  A    between atoms: _274  and  _275
REMARK  118  A    between atoms: _274  and  _277
REMARK  119  A    between atoms: _277  and  _278
REMARK  120  A    between atoms: _281  and  _283
REMARK  121  A    between atoms: _283  and  _284
REMARK  122  A    between atoms: _283  and  _286
REMARK  123  A    between atoms: _286  and  _287
REMARK  124  A    between atoms: _290  and  _292
REMARK  125  A    between atoms: _292  and  _293
REMARK  126  A    between atoms: _295  and  _297
REMARK  127  A    between atoms: _297  and  _298
REMARK  128  A    between atoms: _297  and  _300
REMARK  129  A    between atoms: _300  and  _301
REMARK  130  A    between atoms: _304  and  _306
REMARK  131  A    between atoms: _306  and  _307
REMARK  132  A    between atoms: _306  and  _309
REMARK  133  A    between atoms: _309  and  _310
REMARK  134  A    between atoms: _313  and  _315
REMARK  135  A    between atoms: _315  and  _316
REMARK  136  A    between atoms: _315  and  _318
REMARK  137  A    between atoms: _318  and  _319
REMARK  138  A    between atoms: _322  and  _324
REMARK  139  A    between atoms: _324  and  _325
REMARK  140  A    between atoms: _328  and  _330
REMARK  141  A    between atoms: _330  and  _331
REMARK  142  A    between atoms: _330  and  _333
REMARK  143  A    between atoms: _333  and  _334
REMARK  144  A    between atoms: _340  and  _342
REMARK  145  A    between atoms: _342  and  _343
REMARK  146  A    between atoms: _342  and  _345
REMARK  147  A    between atoms: _345  and  _346
REMARK  148  A    between atoms: _349  and  _351
REMARK  149  A    between atoms: _351  and  _352
REMARK  150  A    between atoms: _351  and  _354
REMARK  151  A    between atoms: _354  and  _355
REMARK  152  A    between atoms: _358  and  _360
REMARK  153  A    between atoms: _360  and  _361
REMARK  154  A    between atoms: _360  and  _363
REMARK  155  A    between atoms: _363  and  _364
REMARK  156  A    between atoms: _369  and  _371
REMARK  157  A    between atoms: _371  and  _372
REMARK  158  A    between atoms: _371  and  _374
REMARK  159  A    between atoms: _374  and  _375
REMARK  160  A    between atoms: _378  and  _380
REMARK  161  A    between atoms: _380  and  _381
REMARK  162  A    between atoms: _380  and  _383
REMARK  163  A    between atoms: _383  and  _384
REMARK  164  A    between atoms: _384  and  _385
REMARK  165  A    between atoms: _390  and  _392
REMARK  166  A    between atoms: _392  and  _393
REMARK  167  A    between atoms: _392  and  _395
REMARK  168  A    between atoms: _395  and  _396
REMARK  169  A    between atoms: _396  and  _397
REMARK  170  A    between atoms: _402  and  _404
REMARK  171  A    between atoms: _404  and  _405
REMARK  172  A    between atoms: _407  and  _409
REMARK  173  A    between atoms: _409  and  _410
REMARK  174  A    between atoms: _409  and  _412
REMARK  175  A    between atoms: _412  and  _413
REMARK  176  A    between atoms: _419  and  _421
REMARK  177  A    between atoms: _421  and  _422
REMARK  178  A    between atoms: _421  and  _424
REMARK  179  A    between atoms: _424  and  _425
REMARK  180  A    between atoms: _428  and  _430
REMARK  181  A    between atoms: _430  and  _431
REMARK  182  A    between atoms: _434  and  _436
REMARK  183  A    between atoms: _436  and  _437
REMARK  184  A    between atoms: _436  and  _439
REMARK  185  A    between atoms: _439  and  _440
REMARK  186  A    between atoms: _443  and  _445
REMARK  187  A    between atoms: _445  and  _446
REMARK  188  A    between atoms: _445  and  _448
REMARK  189  A    between atoms: _448  and  _449
REMARK  190  A    between atoms: _452  and  _454
REMARK  191  A    between atoms: _454  and  _455
REMARK  192  A    between atoms: _457  and  _459
REMARK  193  A    between atoms: _459  and  _460
REMARK  194  A    between atoms: _459  and  _462
REMARK  195  A    between atoms: _462  and  _463
REMARK  196  A    between atoms: _466  and  _468
REMARK  197  A    between atoms: _468  and  _469
REMARK  198  A    between atoms: _468  and  _471
REMARK  199  A    between atoms: _471  and  _472
REMARK  200  A    between atoms: _475  and  _477
REMARK  201  A    between atoms: _477  and  _478
REMARK  202  A    between atoms: _477  and  _480
REMARK  203  A    between atoms: _480  and  _481
REMARK  204  A    between atoms: _484  and  _486
REMARK  205  A    between atoms: _486  and  _487
REMARK  206  A    between atoms: _486  and  _489
REMARK  207  A    between atoms: _489  and  _490
REMARK  208  A    between atoms: _495  and  _496
REMARK  209  A    between atoms: _498  and  _500
REMARK  210  A    between atoms: _500  and  _501
REMARK  211  A    between atoms: _500  and  _503
REMARK  212  A    between atoms: _503  and  _504
REMARK  213  A    between atoms: _510  and  _512
REMARK  214  A    between atoms: _512  and  _513
REMARK  215  A    between atoms: _515  and  _517
REMARK  216  A    between atoms: _517  and  _518
REMARK  217  A    between atoms: _517  and  _520
REMARK  218  A    between atoms: _520  and  _521
REMARK  219  A    between atoms: _524  and  _526
REMARK  220  A    between atoms: _526  and  _527
REMARK  221  A    between atoms: _529  and  _531
REMARK  222  A    between atoms: _531  and  _532
REMARK  223  A    between atoms: _531  and  _534
REMARK  224  A    between atoms: _534  and  _535
REMARK  225  A    between atoms: _538  and  _540
REMARK  226  A    between atoms: _540  and  _541
REMARK  227  A    between atoms: _540  and  _543
REMARK  228  A    between atoms: _543  and  _544
REMARK  229  A    between atoms: _549  and  _551
REMARK  230  A    between atoms: _551  and  _552
REMARK  231  A    between atoms: _551  and  _554
REMARK  232  A    between atoms: _554  and  _555
REMARK  233  A    between atoms: _558  and  _560
REMARK  234  A    between atoms: _560  and  _561
REMARK  235  A    between atoms: _563  and  _565
REMARK  236  A    between atoms: _565  and  _566
REMARK  237  A    between atoms: _565  and  _568
REMARK  238  A    between atoms: _568  and  _569
REMARK                            x       y       z     vdW  Elec       q    Type
REMARK                         _______ _______ _______ _____ _____    ______ ____
ROOT
ATOM      1  O   HOH     1      -1.027  -1.195   6.999  0.00  0.00    +0.000 OA
ENDROOT
TORSDOF 0
REMARK  Name = ../refined-set-2016/3prs/3prs_pocket.pdb
REMARK  238 active torsions:
REMARK  status: ('A' for Active; 'I' for Inactive)
REMARK    1  A    between atoms: _1  and  _3
REMARK    2  A    between atoms: _3  and  _4
REMARK    3  A    between atoms: _3  and  _6
REMARK    4  A    between atoms: _6  and  _7
REMARK    5  A    between atoms: _10  and  _12
REMARK    6  A    between atoms: _12  and  _13
REMARK    7  A    between atoms: _12  and  _15
REMARK    8  A    between atoms: _15  and  _16
REMARK    9  A    between atoms: _19  and  _21
REMARK   10  A    between atoms: _21  and  _22
REMARK   11  A    between atoms: _21  and  _24
REMARK   12  A    between atoms: _24  and  _25
REMARK   13  A    between atoms: _28  and  _30
REMARK   14  A    between atoms: _30  and  _31
REMARK   15  A    between atoms: _30  and  _33
REMARK   16  A    between atoms: _33  and  _34
REMARK   17  A    between atoms: _37  and  _39
REMARK   18  A    between atoms: _39  and  _40
REMARK   19  A    between atoms: _39  and  _42
REMARK   20  A    between atoms: _42  and  _43
REMARK   21  A    between atoms: _46  and  _48
REMARK   22  A    between atoms: _48  and  _49
REMARK   23  A    between atoms: _52  and  _54
REMARK   24  A    between atoms: _54  and  _55
REMARK   25  A    between atoms: _54  and  _57
REMARK   26  A    between atoms: _57  and  _58
REMARK   27  A    between atoms: _63  and  _64
REMARK   28  A    between atoms: _66  and  _68
REMARK   29  A    between atoms: _68  and  _69
REMARK   30  A    between atoms: _68  and  _71
REMARK   31  A    between atoms: _71  and  _72
REMARK   32  A    between atoms: _75  and  _77
REMARK   33  A    between atoms: _77  and  _78
REMARK   34  A    between atoms: _77  and  _80
REMARK   35  A    between atoms: _80  and  _81
REMARK   36  A    between atoms: _87  and  _89
REMARK   37  A    between atoms: _89  and  _90
REMARK   38  A    between atoms: _89  and  _92
REMARK   39  A    between atoms: _92  and  _93
REMARK   40  A    between atoms: _96  and  _98
REMARK   41  A    between atoms: _98  and  _99
REMARK   42  A    between atoms: _98  and  _101
REMARK   43  A    between atoms: _101  and  _102
REMARK   44  A    between atoms: _105  and  _107
REMARK   45  A    between atoms: _107  and  _108
REMARK   46  A    between atoms: _110  and  _112
REMARK   47  A    between atoms: _112  and  _113
REMARK   48  A    between atoms: _112  and  _115
REMARK   49  A    between atoms: _115  and  _116
REMARK   50  A    between atoms: _118  and  _120
REMARK   51  A    between atoms: _120  and  _121
REMARK   52  A    between atoms: _120  and  _123
REMARK   53  A    between atoms: _123  and  _124
REMARK   54  A    between atoms: _126  and  _128
REMARK   55  A    between atoms: _128  and  _129
REMARK   56  A    between atoms: _128  and  _131
REMARK   57  A    between atoms: _131  and  _132
REMARK   58  A    between atoms: _135  and  _137
REMARK   59  A    between atoms: _137  and  _138
REMARK   60  A    between atoms: _137  and  _140
REMARK   61  A    between atoms: _140  and  _141
REMARK   62  A    between atoms: _151  and  _153
REMARK   63  A    between atoms: _153  and  _154
REMARK   64  A    between atoms: _153  and  _156
REMARK   65  A    between atoms: _156  and  _157
REMARK   66  A    between atoms: _159  and  _161
REMARK   67  A    between atoms: _161  and  _162
REMARK   68  A    between atoms: _161  and  _164
REMARK   69  A    between atoms: _164  and  _165
REMARK   70  A    between atoms: _168  and  _170
REMARK   71  A    between atoms: _170  and  _171
REMARK   72  A    between atoms: _170  and  _173
REMARK   73  A    between atoms: _173  and  _174
REMARK   74  A    between atoms: _176  and  _178
REMARK   75  A    between atoms: _178  and  _179
REMARK   76  A    between atoms: _178  and  _181
REMARK   77  A    between atoms: _181  and  _182
REMARK   78  A    between atoms: _187  and  _188
REMARK   79  A    between atoms: _190  and  _192
REMARK   80  A    between atoms: _192  and  _193
REMARK   81  A    between atoms: _195  and  _197
REMARK   82  A    between atoms: _197  and  _198
REMARK   83  A    between atoms: _197  and  _200
REMARK   84  A    between atoms: _200  and  _201
REMARK   85  A    between atoms: _204  and  _206
REMARK   86  A    between atoms: _206  and  _207
REMARK   87  A    between atoms: _209  and  _211
REMARK   88  A    between atoms: _211  and  _212
REMARK   89  A    between atoms: _211  and  _214
REMARK   90  A    between atoms: _214  and  _215
REMARK   91  A    between atoms: _217  and  _219
REMARK   92  A    between atoms: _219  and  _220
REMARK   93  A    between atoms: _219  and  _222
REMARK   94  A    between atoms: _222  and  _223
REMARK   95  A    between atoms: _225  and  _227
REMARK   96  A    between atoms: _227  and  _228
REMARK   97  A    between atoms: _227  and  _230
REMARK   98  A    between atoms: _230  and  _231
REMARK   99  A    between atoms: _233  and  _235
REMARK  100  A    between atoms: _235  and  _236
REMARK  101  A    between atoms: _235  and  _238
REMARK  102  A    between atoms: _238  and  _239
REMARK  103  A    between atoms: _245  and  _247
REMARK  104  A    between atoms: _247  and  _248
REMARK  105  A    between atoms: _247  and  _250
REMARK  106  A    between atoms: _250  and  _251
REMARK  107  A    between atoms: _251  and  _252
REMARK  108  A    between atoms: _255  and  _257
REMARK  109  A    between atoms: _257  and  _258
REMARK  110  A    between atoms: _257  and  _260
REMARK  111  A    between atoms: _260  and  _261
REMARK  112  A    between atoms: _264  and  _266
REMARK  113  A    between atoms: _266  and  _267
REMARK  114  A    between atoms: _266  and  _269
REMARK  115  A    between atoms: _269  and  _270
REMARK  116  A    between atoms: _272  and  _274
REMARK  117  A    between atoms: _274  and  _275
REMARK  118  A    between atoms: _274  and  _277
REMARK  119  A    between atoms: _277  and  _278
REMARK  120  A    between atoms: _281  and  _283
REMARK  121  A    between atoms: _283  and  _284
REMARK  122  A    between atoms: _283  and  _286
REMARK  123  A    between atoms: _286  and  _287
REMARK  124  A    between atoms: _290  and  _292
REMARK  125  A    between atoms: _292  and  _293
REMARK  126  A    between atoms: _295  and  _297
REMARK  127  A    between atoms: _297  and  _298
REMARK  128  A    between atoms: _297  and  _300
REMARK  129  A    between atoms: _300  and  _301
REMARK  130  A    between atoms: _304  and  _306
REMARK  131  A    between atoms: _306  and  _307
REMARK  132  A    between atoms: _306  and  _309
REMARK  133  A    between atoms: _309  and  _310
REMARK  134  A    between atoms: _313  and  _315
REMARK  135  A    between atoms: _315  and  _316
REMARK  136  A    between atoms: _315  and  _318
REMARK  137  A    between atoms: _318  and  _319
REMARK  138  A    between atoms: _322  and  _324
REMARK  139  A    between atoms: _324  and  _325
REMARK  140  A    between atoms: _328  and  _330
REMARK  141  A    between atoms: _330  and  _331
REMARK  142  A    between atoms: _330  and  _333
REMARK  143  A    between atoms: _333  and  _334
REMARK  144  A    between atoms: _340  and  _342
REMARK  145  A    between atoms: _342  and  _343
REMARK  146  A    between atoms: _342  and  _345
REMARK  147  A    between atoms: _345  and  _346
REMARK  148  A    between atoms: _349  and  _351
REMARK  149  A    between atoms: _351  and  _352
REMARK  150  A    between atoms: _351  and  _354
REMARK  151  A    between atoms: _354  and  _355
REMARK  152  A    between atoms: _358  and  _360
REMARK  153  A    between atoms: _360  and  _361
REMARK  154  A    between atoms: _360  and  _363
REMARK  155  A    between atoms: _363  and  _364
REMARK  156  A    between atoms: _369  and  _371
REMARK  157  A    between atoms: _371  and  _372
REMARK  158  A    between atoms: _371  and  _374
REMARK  159  A    between atoms: _374  and  _375
REMARK  160  A    between atoms: _378  and  _380
REMARK  161  A    between atoms: _380  and  _381
REMARK  162  A    between atoms: _380  and  _383
REMARK  163  A    between atoms: _383  and  _384
REMARK  164  A    between atoms: _384  and  _385
REMARK  165  A    between atoms: _390  and  _392
REMARK  166  A    between atoms: _392  and  _393
REMARK  167  A    between atoms: _392  and  _395
REMARK  168  A    between atoms: _395  and  _396
REMARK  169  A    between atoms: _396  and  _397
REMARK  170  A    between atoms: _402  and  _404
REMARK  171  A    between atoms: _404  and  _405
REMARK  172  A    between atoms: _407  and  _409
REMARK  173  A    between atoms: _409  and  _410
REMARK  174  A    between atoms: _409  and  _412
REMARK  175  A    between atoms: _412  and  _413
REMARK  176  A    between atoms: _419  and  _421
REMARK  177  A    between atoms: _421  and  _422
REMARK  178  A    between atoms: _421  and  _424
REMARK  179  A    between atoms: _424  and  _425
REMARK  180  A    between atoms: _428  and  _430
REMARK  181  A    between atoms: _430  and  _431
REMARK  182  A    between atoms: _434  and  _436
REMARK  183  A    between atoms: _436  and  _437
REMARK  184  A    between atoms: _436  and  _439
REMARK  185  A    between atoms: _439  and  _440
REMARK  186  A    between atoms: _443  and  _445
REMARK  187  A    between atoms: _445  and  _446
REMARK  188  A    between atoms: _445  and  _448
REMARK  189  A    between atoms: _448  and  _449
REMARK  190  A    between atoms: _452  and  _454
REMARK  191  A    between atoms: _454  and  _455
REMARK  192  A    between atoms: _457  and  _459
REMARK  193  A    between atoms: _459  and  _460
REMARK  194  A    between atoms: _459  and  _462
REMARK  195  A    between atoms: _462  and  _463
REMARK  196  A    between atoms: _466  and  _468
REMARK  197  A    between atoms: _468  and  _469
REMARK  198  A    between atoms: _468  and  _471
REMARK  199  A    between atoms: _471  and  _472
REMARK  200  A    between atoms: _475  and  _477
REMARK  201  A    between atoms: _477  and  _478
REMARK  202  A    between atoms: _477  and  _480
REMARK  203  A    between atoms: _480  and  _481
REMARK  204  A    between atoms: _484  and  _486
REMARK  205  A    between atoms: _486  and  _487
REMARK  206  A    between atoms: _486  and  _489
REMARK  207  A    between atoms: _489  and  _490
REMARK  208  A    between atoms: _495  and  _496
REMARK  209  A    between atoms: _498  and  _500
REMARK  210  A    between atoms: _500  and  _501
REMARK  211  A    between atoms: _500  and  _503
REMARK  212  A    between atoms: _503  and  _504
REMARK  213  A    between atoms: _510  and  _512
REMARK  214  A    between atoms: _512  and  _513
REMARK  215  A    between atoms: _515  and  _517
REMARK  216  A    between atoms: _517  and  _518
REMARK  217  A    between atoms: _517  and  _520
REMARK  218  A    between atoms: _520  and  _521
REMARK  219  A    between atoms: _524  and  _526
REMARK  220  A    between atoms: _526  and  _527
REMARK  221  A    between atoms: _529  and  _531
REMARK  222  A    between atoms: _531  and  _532
REMARK  223  A    between atoms: _531  and  _534
REMARK  224  A    between atoms: _534  and  _535
REMARK  225  A    between atoms: _538  and  _540
REMARK  226  A    between atoms: _540  and  _541
REMARK  227  A    between atoms: _540  and  _543
REMARK  228  A    between atoms: _543  and  _544
REMARK  229  A    between atoms: _549  and  _551
REMARK  230  A    between atoms: _551  and  _552
REMARK  231  A    between atoms: _551  and  _554
REMARK  232  A    between atoms: _554  and  _555
REMARK  233  A    between atoms: _558  and  _560
REMARK  234  A    between atoms: _560  and  _561
REMARK  235  A    between atoms: _563  and  _565
REMARK  236  A    between atoms: _565  and  _566
REMARK  237  A    between atoms: _565  and  _568
REMARK  238  A    between atoms: _568  and  _569
REMARK                            x       y       z     vdW  Elec       q    Type
REMARK                         _______ _______ _______ _____ _____    ______ ____
ROOT
ATOM      1  O   HOH     1       6.128   4.943  16.825  0.00  0.00    +0.000 OA
ENDROOT
TORSDOF 0
REMARK  Name = ../refined-set-2016/3prs/3prs_pocket.pdb
REMARK  238 active torsions:
REMARK  status: ('A' for Active; 'I' for Inactive)
REMARK    1  A    between atoms: _1  and  _3
REMARK    2  A    between atoms: _3  and  _4
REMARK    3  A    between atoms: _3  and  _6
REMARK    4  A    between atoms: _6  and  _7
REMARK    5  A    between atoms: _10  and  _12
REMARK    6  A    between atoms: _12  and  _13
REMARK    7  A    between atoms: _12  and  _15
REMARK    8  A    between atoms: _15  and  _16
REMARK    9  A    between atoms: _19  and  _21
REMARK   10  A    between atoms: _21  and  _22
REMARK   11  A    between atoms: _21  and  _24
REMARK   12  A    between atoms: _24  and  _25
REMARK   13  A    between atoms: _28  and  _30
REMARK   14  A    between atoms: _30  and  _31
REMARK   15  A    between atoms: _30  and  _33
REMARK   16  A    between atoms: _33  and  _34
REMARK   17  A    between atoms: _37  and  _39
REMARK   18  A    between atoms: _39  and  _40
REMARK   19  A    between atoms: _39  and  _42
REMARK   20  A    between atoms: _42  and  _43
REMARK   21  A    between atoms: _46  and  _48
REMARK   22  A    between atoms: _48  and  _49
REMARK   23  A    between atoms: _52  and  _54
REMARK   24  A    between atoms: _54  and  _55
REMARK   25  A    between atoms: _54  and  _57
REMARK   26  A    between atoms: _57  and  _58
REMARK   27  A    between atoms: _63  and  _64
REMARK   28  A    between atoms: _66  and  _68
REMARK   29  A    between atoms: _68  and  _69
REMARK   30  A    between atoms: _68  and  _71
REMARK   31  A    between atoms: _71  and  _72
REMARK   32  A    between atoms: _75  and  _77
REMARK   33  A    between atoms: _77  and  _78
REMARK   34  A    between atoms: _77  and  _80
REMARK   35  A    between atoms: _80  and  _81
REMARK   36  A    between atoms: _87  and  _89
REMARK   37  A    between atoms: _89  and  _90
REMARK   38  A    between atoms: _89  and  _92
REMARK   39  A    between atoms: _92  and  _93
REMARK   40  A    between atoms: _96  and  _98
REMARK   41  A    between atoms: _98  and  _99
REMARK   42  A    between atoms: _98  and  _101
REMARK   43  A    between atoms: _101  and  _102
REMARK   44  A    between atoms: _105  and  _107
REMARK   45  A    between atoms: _107  and  _108
REMARK   46  A    between atoms: _110  and  _112
REMARK   47  A    between atoms: _112  and  _113
REMARK   48  A    between atoms: _112  and  _115
REMARK   49  A    between atoms: _115  and  _116
REMARK   50  A    between atoms: _118  and  _120
REMARK   51  A    between atoms: _120  and  _121
REMARK   52  A    between atoms: _120  and  _123
REMARK   53  A    between atoms: _123  and  _124
REMARK   54  A    between atoms: _126  and  _128
REMARK   55  A    between atoms: _128  and  _129
REMARK   56  A    between atoms: _128  and  _131
REMARK   57  A    between atoms: _131  and  _132
REMARK   58  A    between atoms: _135  and  _137
REMARK   59  A    between atoms: _137  and  _138
REMARK   60  A    between atoms: _137  and  _140
REMARK   61  A    between atoms: _140  and  _141
REMARK   62  A    between atoms: _151  and  _153
REMARK   63  A    between atoms: _153  and  _154
REMARK   64  A    between atoms: _153  and  _156
REMARK   65  A    between atoms: _156  and  _157
REMARK   66  A    between atoms: _159  and  _161
REMARK   67  A    between atoms: _161  and  _162
REMARK   68  A    between atoms: _161  and  _164
REMARK   69  A    between atoms: _164  and  _165
REMARK   70  A    between atoms: _168  and  _170
REMARK   71  A    between atoms: _170  and  _171
REMARK   72  A    between atoms: _170  and  _173
REMARK   73  A    between atoms: _173  and  _174
REMARK   74  A    between atoms: _176  and  _178
REMARK   75  A    between atoms: _178  and  _179
REMARK   76  A    between atoms: _178  and  _181
REMARK   77  A    between atoms: _181  and  _182
REMARK   78  A    between atoms: _187  and  _188
REMARK   79  A    between atoms: _190  and  _192
REMARK   80  A    between atoms: _192  and  _193
REMARK   81  A    between atoms: _195  and  _197
REMARK   82  A    between atoms: _197  and  _198
REMARK   83  A    between atoms: _197  and  _200
REMARK   84  A    between atoms: _200  and  _201
REMARK   85  A    between atoms: _204  and  _206
REMARK   86  A    between atoms: _206  and  _207
REMARK   87  A    between atoms: _209  and  _211
REMARK   88  A    between atoms: _211  and  _212
REMARK   89  A    between atoms: _211  and  _214
REMARK   90  A    between atoms: _214  and  _215
REMARK   91  A    between atoms: _217  and  _219
REMARK   92  A    between atoms: _219  and  _220
REMARK   93  A    between atoms: _219  and  _222
REMARK   94  A    between atoms: _222  and  _223
REMARK   95  A    between atoms: _225  and  _227
REMARK   96  A    between atoms: _227  and  _228
REMARK   97  A    between atoms: _227  and  _230
REMARK   98  A    between atoms: _230  and  _231
REMARK   99  A    between atoms: _233  and  _235
REMARK  100  A    between atoms: _235  and  _236
REMARK  101  A    between atoms: _235  and  _238
REMARK  102  A    between atoms: _238  and  _239
REMARK  103  A    between atoms: _245  and  _247
REMARK  104  A    between atoms: _247  and  _248
REMARK  105  A    between atoms: _247  and  _250
REMARK  106  A    between atoms: _250  and  _251
REMARK  107  A    between atoms: _251  and  _252
REMARK  108  A    between atoms: _255  and  _257
REMARK  109  A    between atoms: _257  and  _258
REMARK  110  A    between atoms: _257  and  _260
REMARK  111  A    between atoms: _260  and  _261
REMARK  112  A    between atoms: _264  and  _266
REMARK  113  A    between atoms: _266  and  _267
REMARK  114  A    between atoms: _266  and  _269
REMARK  115  A    between atoms: _269  and  _270
REMARK  116  A    between atoms: _272  and  _274
REMARK  117  A    between atoms: _274  and  _275
REMARK  118  A    between atoms: _274  and  _277
REMARK  119  A    between atoms: _277  and  _278
REMARK  120  A    between atoms: _281  and  _283
REMARK  121  A    between atoms: _283  and  _284
REMARK  122  A    between atoms: _283  and  _286
REMARK  123  A    between atoms: _286  and  _287
REMARK  124  A    between atoms: _290  and  _292
REMARK  125  A    between atoms: _292  and  _293
REMARK  126  A    between atoms: _295  and  _297
REMARK  127  A    between atoms: _297  and  _298
REMARK  128  A    between atoms: _297  and  _300
REMARK  129  A    between atoms: _300  and  _301
REMARK  130  A    between atoms: _304  and  _306
REMARK  131  A    between atoms: _306  and  _307
REMARK  132  A    between atoms: _306  and  _309
REMARK  133  A    between atoms: _309  and  _310
REMARK  134  A    between atoms: _313  and  _315
REMARK  135  A    between atoms: _315  and  _316
REMARK  136  A    between atoms: _315  and  _318
REMARK  137  A    between atoms: _318  and  _319
REMARK  138  A    between atoms: _322  and  _324
REMARK  139  A    between atoms: _324  and  _325
REMARK  140  A    between atoms: _328  and  _330
REMARK  141  A    between atoms: _330  and  _331
REMARK  142  A    between atoms: _330  and  _333
REMARK  143  A    between atoms: _333  and  _334
REMARK  144  A    between atoms: _340  and  _342
REMARK  145  A    between atoms: _342  and  _343
REMARK  146  A    between atoms: _342  and  _345
REMARK  147  A    between atoms: _345  and  _346
REMARK  148  A    between atoms: _349  and  _351
REMARK  149  A    between atoms: _351  and  _352
REMARK  150  A    between atoms: _351  and  _354
REMARK  151  A    between atoms: _354  and  _355
REMARK  152  A    between atoms: _358  and  _360
REMARK  153  A    between atoms: _360  and  _361
REMARK  154  A    between atoms: _360  and  _363
REMARK  155  A    between atoms: _363  and  _364
REMARK  156  A    between atoms: _369  and  _371
REMARK  157  A    between atoms: _371  and  _372
REMARK  158  A    between atoms: _371  and  _374
REMARK  159  A    between atoms: _374  and  _375
REMARK  160  A    between atoms: _378  and  _380
REMARK  161  A    between atoms: _380  and  _381
REMARK  162  A    between atoms: _380  and  _383
REMARK  163  A    between atoms: _383  and  _384
REMARK  164  A    between atoms: _384  and  _385
REMARK  165  A    between atoms: _390  and  _392
REMARK  166  A    between atoms: _392  and  _393
REMARK  167  A    between atoms: _392  and  _395
REMARK  168  A    between atoms: _395  and  _396
REMARK  169  A    between atoms: _396  and  _397
REMARK  170  A    between atoms: _402  and  _404
REMARK  171  A    between atoms: _404  and  _405
REMARK  172  A    between atoms: _407  and  _409
REMARK  173  A    between atoms: _409  and  _410
REMARK  174  A    between atoms: _409  and  _412
REMARK  175  A    between atoms: _412  and  _413
REMARK  176  A    between atoms: _419  and  _421
REMARK  177  A    between atoms: _421  and  _422
REMARK  178  A    between atoms: _421  and  _424
REMARK  179  A    between atoms: _424  and  _425
REMARK  180  A    between atoms: _428  and  _430
REMARK  181  A    between atoms: _430  and  _431
REMARK  182  A    between atoms: _434  and  _436
REMARK  183  A    between atoms: _436  and  _437
REMARK  184  A    between atoms: _436  and  _439
REMARK  185  A    between atoms: _439  and  _440
REMARK  186  A    between atoms: _443  and  _445
REMARK  187  A    between atoms: _445  and  _446
REMARK  188  A    between atoms: _445  and  _448
REMARK  189  A    between atoms: _448  and  _449
REMARK  190  A    between atoms: _452  and  _454
REMARK  191  A    between atoms: _454  and  _455
REMARK  192  A    between atoms: _457  and  _459
REMARK  193  A    between atoms: _459  and  _460
REMARK  194  A    between atoms: _459  and  _462
REMARK  195  A    between atoms: _462  and  _463
REMARK  196  A    between atoms: _466  and  _468
REMARK  197  A    between atoms: _468  and  _469
REMARK  198  A    between atoms: _468  and  _471
REMARK  199  A    between atoms: _471  and  _472
REMARK  200  A    between atoms: _475  and  _477
REMARK  201  A    between atoms: _477  and  _478
REMARK  202  A    between atoms: _477  and  _480
REMARK  203  A    between atoms: _480  and  _481
REMARK  204  A    between atoms: _484  and  _486
REMARK  205  A    between atoms: _486  and  _487
REMARK  206  A    between atoms: _486  and  _489
REMARK  207  A    between atoms: _489  and  _490
REMARK  208  A    between atoms: _495  and  _496
REMARK  209  A    between atoms: _498  and  _500
REMARK  210  A    between atoms: _500  and  _501
REMARK  211  A    between atoms: _500  and  _503
REMARK  212  A    between atoms: _503  and  _504
REMARK  213  A    between atoms: _510  and  _512
REMARK  214  A    between atoms: _512  and  _513
REMARK  215  A    between atoms: _515  and  _517
REMARK  216  A    between atoms: _517  and  _518
REMARK  217  A    between atoms: _517  and  _520
REMARK  218  A    between atoms: _520  and  _521
REMARK  219  A    between atoms: _524  and  _526
REMARK  220  A    between atoms: _526  and  _527
REMARK  221  A    between atoms: _529  and  _531
REMARK  222  A    between atoms: _531  and  _532
REMARK  223  A    between atoms: _531  and  _534
REMARK  224  A    between atoms: _534  and  _535
REMARK  225  A    between atoms: _538  and  _540
REMARK  226  A    between atoms: _540  and  _541
REMARK  227  A    between atoms: _540  and  _543
REMARK  228  A    between atoms: _543  and  _544
REMARK  229  A    between atoms: _549  and  _551
REMARK  230  A    between atoms: _551  and  _552
REMARK  231  A    between atoms: _551  and  _554
REMARK  232  A    between atoms: _554  and  _555
REMARK  233  A    between atoms: _558  and  _560
REMARK  234  A    between atoms: _560  and  _561
REMARK  235  A    between atoms: _563  and  _565
REMARK  236  A    between atoms: _565  and  _566
REMARK  237  A    between atoms: _565  and  _568
REMARK  238  A    between atoms: _568  and  _569
REMARK                            x       y       z     vdW  Elec       q    Type
REMARK                         _______ _______ _______ _____ _____    ______ ____
ROOT
ATOM      1  O   HOH     1      -6.063  -4.886  13.981  0.00  0.00    +0.000 OA
ENDROOT
TORSDOF 0
REMARK  Name = ../refined-set-2016/3prs/3prs_pocket.pdb
REMARK  238 active torsions:
REMARK  status: ('A' for Active; 'I' for Inactive)
REMARK    1  A    between atoms: _1  and  _3
REMARK    2  A    between atoms: _3  and  _4
REMARK    3  A    between atoms: _3  and  _6
REMARK    4  A    between atoms: _6  and  _7
REMARK    5  A    between atoms: _10  and  _12
REMARK    6  A    between atoms: _12  and  _13
REMARK    7  A    between atoms: _12  and  _15
REMARK    8  A    between atoms: _15  and  _16
REMARK    9  A    between atoms: _19  and  _21
REMARK   10  A    between atoms: _21  and  _22
REMARK   11  A    between atoms: _21  and  _24
REMARK   12  A    between atoms: _24  and  _25
REMARK   13  A    between atoms: _28  and  _30
REMARK   14  A    between atoms: _30  and  _31
REMARK   15  A    between atoms: _30  and  _33
REMARK   16  A    between atoms: _33  and  _34
REMARK   17  A    between atoms: _37  and  _39
REMARK   18  A    between atoms: _39  and  _40
REMARK   19  A    between atoms: _39  and  _42
REMARK   20  A    between atoms: _42  and  _43
REMARK   21  A    between atoms: _46  and  _48
REMARK   22  A    between atoms: _48  and  _49
REMARK   23  A    between atoms: _52  and  _54
REMARK   24  A    between atoms: _54  and  _55
REMARK   25  A    between atoms: _54  and  _57
REMARK   26  A    between atoms: _57  and  _58
REMARK   27  A    between atoms: _63  and  _64
REMARK   28  A    between atoms: _66  and  _68
REMARK   29  A    between atoms: _68  and  _69
REMARK   30  A    between atoms: _68  and  _71
REMARK   31  A    between atoms: _71  and  _72
REMARK   32  A    between atoms: _75  and  _77
REMARK   33  A    between atoms: _77  and  _78
REMARK   34  A    between atoms: _77  and  _80
REMARK   35  A    between atoms: _80  and  _81
REMARK   36  A    between atoms: _87  and  _89
REMARK   37  A    between atoms: _89  and  _90
REMARK   38  A    between atoms: _89  and  _92
REMARK   39  A    between atoms: _92  and  _93
REMARK   40  A    between atoms: _96  and  _98
REMARK   41  A    between atoms: _98  and  _99
REMARK   42  A    between atoms: _98  and  _101
REMARK   43  A    between atoms: _101  and  _102
REMARK   44  A    between atoms: _105  and  _107
REMARK   45  A    between atoms: _107  and  _108
REMARK   46  A    between atoms: _110  and  _112
REMARK   47  A    between atoms: _112  and  _113
REMARK   48  A    between atoms: _112  and  _115
REMARK   49  A    between atoms: _115  and  _116
REMARK   50  A    between atoms: _118  and  _120
REMARK   51  A    between atoms: _120  and  _121
REMARK   52  A    between atoms: _120  and  _123
REMARK   53  A    between atoms: _123  and  _124
REMARK   54  A    between atoms: _126  and  _128
REMARK   55  A    between atoms: _128  and  _129
REMARK   56  A    between atoms: _128  and  _131
REMARK   57  A    between atoms: _131  and  _132
REMARK   58  A    between atoms: _135  and  _137
REMARK   59  A    between atoms: _137  and  _138
REMARK   60  A    between atoms: _137  and  _140
REMARK   61  A    between atoms: _140  and  _141
REMARK   62  A    between atoms: _151  and  _153
REMARK   63  A    between atoms: _153  and  _154
REMARK   64  A    between atoms: _153  and  _156
REMARK   65  A    between atoms: _156  and  _157
REMARK   66  A    between atoms: _159  and  _161
REMARK   67  A    between atoms: _161  and  _162
REMARK   68  A    between atoms: _161  and  _164
REMARK   69  A    between atoms: _164  and  _165
REMARK   70  A    between atoms: _168  and  _170
REMARK   71  A    between atoms: _170  and  _171
REMARK   72  A    between atoms: _170  and  _173
REMARK   73  A    between atoms: _173  and  _174
REMARK   74  A    between atoms: _176  and  _178
REMARK   75  A    between atoms: _178  and  _179
REMARK   76  A    between atoms: _178  and  _181
REMARK   77  A    between atoms: _181  and  _182
REMARK   78  A    between atoms: _187  and  _188
REMARK   79  A    between atoms: _190  and  _192
REMARK   80  A    between atoms: _192  and  _193
REMARK   81  A    between atoms: _195  and  _197
REMARK   82  A    between atoms: _197  and  _198
REMARK   83  A    between atoms: _197  and  _200
REMARK   84  A    between atoms: _200  and  _201
REMARK   85  A    between atoms: _204  and  _206
REMARK   86  A    between atoms: _206  and  _207
REMARK   87  A    between atoms: _209  and  _211
REMARK   88  A    between atoms: _211  and  _212
REMARK   89  A    between atoms: _211  and  _214
REMARK   90  A    between atoms: _214  and  _215
REMARK   91  A    between atoms: _217  and  _219
REMARK   92  A    between atoms: _219  and  _220
REMARK   93  A    between atoms: _219  and  _222
REMARK   94  A    between atoms: _222  and  _223
REMARK   95  A    between atoms: _225  and  _227
REMARK   96  A    between atoms: _227  and  _228
REMARK   97  A    between atoms: _227  and  _230
REMARK   98  A    between atoms: _230  and  _231
REMARK   99  A    between atoms: _233  and  _235
REMARK  100  A    between atoms: _235  and  _236
REMARK  101  A    between atoms: _235  and  _238
REMARK  102  A    between atoms: _238  and  _239
REMARK  103  A    between atoms: _245  and  _247
REMARK  104  A    between atoms: _247  and  _248
REMARK  105  A    between atoms: _247  and  _250
REMARK  106  A    between atoms: _250  and  _251
REMARK  107  A    between atoms: _251  and  _252
REMARK  108  A    between atoms: _255  and  _257
REMARK  109  A    between atoms: _257  and  _258
REMARK  110  A    between atoms: _257  and  _260
REMARK  111  A    between atoms: _260  and  _261
REMARK  112  A    between atoms: _264  and  _266
REMARK  113  A    between atoms: _266  and  _267
REMARK  114  A    between atoms: _266  and  _269
REMARK  115  A    between atoms: _269  and  _270
REMARK  116  A    between atoms: _272  and  _274
REMARK  117  A    between atoms: _274  and  _275
REMARK  118  A    between atoms: _274  and  _277
REMARK  119  A    between atoms: _277  and  _278
REMARK  120  A    between atoms: _281  and  _283
REMARK  121  A    between atoms: _283  and  _284
REMARK  122  A    between atoms: _283  and  _286
REMARK  123  A    between atoms: _286  and  _287
REMARK  124  A    between atoms: _290  and  _292
REMARK  125  A    between atoms: _292  and  _293
REMARK  126  A    between atoms: _295  and  _297
REMARK  127  A    between atoms: _297  and  _298
REMARK  128  A    between atoms: _297  and  _300
REMARK  129  A    between atoms: _300  and  _301
REMARK  130  A    between atoms: _304  and  _306
REMARK  131  A    between atoms: _306  and  _307
REMARK  132  A    between atoms: _306  and  _309
REMARK  133  A    between atoms: _309  and  _310
REMARK  134  A    between atoms: _313  and  _315
REMARK  135  A    between atoms: _315  and  _316
REMARK  136  A    between atoms: _315  and  _318
REMARK  137  A    between atoms: _318  and  _319
REMARK  138  A    between atoms: _322  and  _324
REMARK  139  A    between atoms: _324  and  _325
REMARK  140  A    between atoms: _328  and  _330
REMARK  141  A    between atoms: _330  and  _331
REMARK  142  A    between atoms: _330  and  _333
REMARK  143  A    between atoms: _333  and  _334
REMARK  144  A    between atoms: _340  and  _342
REMARK  145  A    between atoms: _342  and  _343
REMARK  146  A    between atoms: _342  and  _345
REMARK  147  A    between atoms: _345  and  _346
REMARK  148  A    between atoms: _349  and  _351
REMARK  149  A    between atoms: _351  and  _352
REMARK  150  A    between atoms: _351  and  _354
REMARK  151  A    between atoms: _354  and  _355
REMARK  152  A    between atoms: _358  and  _360
REMARK  153  A    between atoms: _360  and  _361
REMARK  154  A    between atoms: _360  and  _363
REMARK  155  A    between atoms: _363  and  _364
REMARK  156  A    between atoms: _369  and  _371
REMARK  157  A    between atoms: _371  and  _372
REMARK  158  A    between atoms: _371  and  _374
REMARK  159  A    between atoms: _374  and  _375
REMARK  160  A    between atoms: _378  and  _380
REMARK  161  A    between atoms: _380  and  _381
REMARK  162  A    between atoms: _380  and  _383
REMARK  163  A    between atoms: _383  and  _384
REMARK  164  A    between atoms: _384  and  _385
REMARK  165  A    between atoms: _390  and  _392
REMARK  166  A    between atoms: _392  and  _393
REMARK  167  A    between atoms: _392  and  _395
REMARK  168  A    between atoms: _395  and  _396
REMARK  169  A    between atoms: _396  and  _397
REMARK  170  A    between atoms: _402  and  _404
REMARK  171  A    between atoms: _404  and  _405
REMARK  172  A    between atoms: _407  and  _409
REMARK  173  A    between atoms: _409  and  _410
REMARK  174  A    between atoms: _409  and  _412
REMARK  175  A    between atoms: _412  and  _413
REMARK  176  A    between atoms: _419  and  _421
REMARK  177  A    between atoms: _421  and  _422
REMARK  178  A    between atoms: _421  and  _424
REMARK  179  A    between atoms: _424  and  _425
REMARK  180  A    between atoms: _428  and  _430
REMARK  181  A    between atoms: _430  and  _431
REMARK  182  A    between atoms: _434  and  _436
REMARK  183  A    between atoms: _436  and  _437
REMARK  184  A    between atoms: _436  and  _439
REMARK  185  A    between atoms: _439  and  _440
REMARK  186  A    between atoms: _443  and  _445
REMARK  187  A    between atoms: _445  and  _446
REMARK  188  A    between atoms: _445  and  _448
REMARK  189  A    between atoms: _448  and  _449
REMARK  190  A    between atoms: _452  and  _454
REMARK  191  A    between atoms: _454  and  _455
REMARK  192  A    between atoms: _457  and  _459
REMARK  193  A    between atoms: _459  and  _460
REMARK  194  A    between atoms: _459  and  _462
REMARK  195  A    between atoms: _462  and  _463
REMARK  196  A    between atoms: _466  and  _468
REMARK  197  A    between atoms: _468  and  _469
REMARK  198  A    between atoms: _468  and  _471
REMARK  199  A    between atoms: _471  and  _472
REMARK  200  A    between atoms: _475  and  _477
REMARK  201  A    between atoms: _477  and  _478
REMARK  202  A    between atoms: _477  and  _480
REMARK  203  A    between atoms: _480  and  _481
REMARK  204  A    between atoms: _484  and  _486
REMARK  205  A    between atoms: _486  and  _487
REMARK  206  A    between atoms: _486  and  _489
REMARK  207  A    between atoms: _489  and  _490
REMARK  208  A    between atoms: _495  and  _496
REMARK  209  A    between atoms: _498  and  _500
REMARK  210  A    between atoms: _500  and  _501
REMARK  211  A    between atoms: _500  and  _503
REMARK  212  A    between atoms: _503  and  _504
REMARK  213  A    between atoms: _510  and  _512
REMARK  214  A    between atoms: _512  and  _513
REMARK  215  A    between atoms: _515  and  _517
REMARK  216  A    between atoms: _517  and  _518
REMARK  217  A    between atoms: _517  and  _520
REMARK  218  A    between atoms: _520  and  _521
REMARK  219  A    between atoms: _524  and  _526
REMARK  220  A    between atoms: _526  and  _527
REMARK  221  A    between atoms: _529  and  _531
REMARK  222  A    between atoms: _531  and  _532
REMARK  223  A    between atoms: _531  and  _534
REMARK  224  A    between atoms: _534  and  _535
REMARK  225  A    between atoms: _538  and  _540
REMARK  226  A    between atoms: _540  and  _541
REMARK  227  A    between atoms: _540  and  _543
REMARK  228  A    between atoms: _543  and  _544
REMARK  229  A    between atoms: _549  and  _551
REMARK  230  A    between atoms: _551  and  _552
REMARK  231  A    between atoms: _551  and  _554
REMARK  232  A    between atoms: _554  and  _555
REMARK  233  A    between atoms: _558  and  _560
REMARK  234  A    between atoms: _560  and  _561
REMARK  235  A    between atoms: _563  and  _565
REMARK  236  A    between atoms: _565  and  _566
REMARK  237  A    between atoms: _565  and  _568
REMARK  238  A    between atoms: _568  and  _569
REMARK                            x       y       z     vdW  Elec       q    Type
REMARK                         _______ _______ _______ _____ _____    ______ ____
ROOT
ATOM      1  O   HOH     1       3.570   1.285  15.533  0.00  0.00    +0.000 OA
ENDROOT
TORSDOF 0
REMARK  Name = ../refined-set-2016/3prs/3prs_pocket.pdb
REMARK  238 active torsions:
REMARK  status: ('A' for Active; 'I' for Inactive)
REMARK    1  A    between atoms: _1  and  _3
REMARK    2  A    between atoms: _3  and  _4
REMARK    3  A    between atoms: _3  and  _6
REMARK    4  A    between atoms: _6  and  _7
REMARK    5  A    between atoms: _10  and  _12
REMARK    6  A    between atoms: _12  and  _13
REMARK    7  A    between atoms: _12  and  _15
REMARK    8  A    between atoms: _15  and  _16
REMARK    9  A    between atoms: _19  and  _21
REMARK   10  A    between atoms: _21  and  _22
REMARK   11  A    between atoms: _21  and  _24
REMARK   12  A    between atoms: _24  and  _25
REMARK   13  A    between atoms: _28  and  _30
REMARK   14  A    between atoms: _30  and  _31
REMARK   15  A    between atoms: _30  and  _33
REMARK   16  A    between atoms: _33  and  _34
REMARK   17  A    between atoms: _37  and  _39
REMARK   18  A    between atoms: _39  and  _40
REMARK   19  A    between atoms: _39  and  _42
REMARK   20  A    between atoms: _42  and  _43
REMARK   21  A    between atoms: _46  and  _48
REMARK   22  A    between atoms: _48  and  _49
REMARK   23  A    between atoms: _52  and  _54
REMARK   24  A    between atoms: _54  and  _55
REMARK   25  A    between atoms: _54  and  _57
REMARK   26  A    between atoms: _57  and  _58
REMARK   27  A    between atoms: _63  and  _64
REMARK   28  A    between atoms: _66  and  _68
REMARK   29  A    between atoms: _68  and  _69
REMARK   30  A    between atoms: _68  and  _71
REMARK   31  A    between atoms: _71  and  _72
REMARK   32  A    between atoms: _75  and  _77
REMARK   33  A    between atoms: _77  and  _78
REMARK   34  A    between atoms: _77  and  _80
REMARK   35  A    between atoms: _80  and  _81
REMARK   36  A    between atoms: _87  and  _89
REMARK   37  A    between atoms: _89  and  _90
REMARK   38  A    between atoms: _89  and  _92
REMARK   39  A    between atoms: _92  and  _93
REMARK   40  A    between atoms: _96  and  _98
REMARK   41  A    between atoms: _98  and  _99
REMARK   42  A    between atoms: _98  and  _101
REMARK   43  A    between atoms: _101  and  _102
REMARK   44  A    between atoms: _105  and  _107
REMARK   45  A    between atoms: _107  and  _108
REMARK   46  A    between atoms: _110  and  _112
REMARK   47  A    between atoms: _112  and  _113
REMARK   48  A    between atoms: _112  and  _115
REMARK   49  A    between atoms: _115  and  _116
REMARK   50  A    between atoms: _118  and  _120
REMARK   51  A    between atoms: _120  and  _121
REMARK   52  A    between atoms: _120  and  _123
REMARK   53  A    between atoms: _123  and  _124
REMARK   54  A    between atoms: _126  and  _128
REMARK   55  A    between atoms: _128  and  _129
REMARK   56  A    between atoms: _128  and  _131
REMARK   57  A    between atoms: _131  and  _132
REMARK   58  A    between atoms: _135  and  _137
REMARK   59  A    between atoms: _137  and  _138
REMARK   60  A    between atoms: _137  and  _140
REMARK   61  A    between atoms: _140  and  _141
REMARK   62  A    between atoms: _151  and  _153
REMARK   63  A    between atoms: _153  and  _154
REMARK   64  A    between atoms: _153  and  _156
REMARK   65  A    between atoms: _156  and  _157
REMARK   66  A    between atoms: _159  and  _161
REMARK   67  A    between atoms: _161  and  _162
REMARK   68  A    between atoms: _161  and  _164
REMARK   69  A    between atoms: _164  and  _165
REMARK   70  A    between atoms: _168  and  _170
REMARK   71  A    between atoms: _170  and  _171
REMARK   72  A    between atoms: _170  and  _173
REMARK   73  A    between atoms: _173  and  _174
REMARK   74  A    between atoms: _176  and  _178
REMARK   75  A    between atoms: _178  and  _179
REMARK   76  A    between atoms: _178  and  _181
REMARK   77  A    between atoms: _181  and  _182
REMARK   78  A    between atoms: _187  and  _188
REMARK   79  A    between atoms: _190  and  _192
REMARK   80  A    between atoms: _192  and  _193
REMARK   81  A    between atoms: _195  and  _197
REMARK   82  A    between atoms: _197  and  _198
REMARK   83  A    between atoms: _197  and  _200
REMARK   84  A    between atoms: _200  and  _201
REMARK   85  A    between atoms: _204  and  _206
REMARK   86  A    between atoms: _206  and  _207
REMARK   87  A    between atoms: _209  and  _211
REMARK   88  A    between atoms: _211  and  _212
REMARK   89  A    between atoms: _211  and  _214
REMARK   90  A    between atoms: _214  and  _215
REMARK   91  A    between atoms: _217  and  _219
REMARK   92  A    between atoms: _219  and  _220
REMARK   93  A    between atoms: _219  and  _222
REMARK   94  A    between atoms: _222  and  _223
REMARK   95  A    between atoms: _225  and  _227
REMARK   96  A    between atoms: _227  and  _228
REMARK   97  A    between atoms: _227  and  _230
REMARK   98  A    between atoms: _230  and  _231
REMARK   99  A    between atoms: _233  and  _235
REMARK  100  A    between atoms: _235  and  _236
REMARK  101  A    between atoms: _235  and  _238
REMARK  102  A    between atoms: _238  and  _239
REMARK  103  A    between atoms: _245  and  _247
REMARK  104  A    between atoms: _247  and  _248
REMARK  105  A    between atoms: _247  and  _250
REMARK  106  A    between atoms: _250  and  _251
REMARK  107  A    between atoms: _251  and  _252
REMARK  108  A    between atoms: _255  and  _257
REMARK  109  A    between atoms: _257  and  _258
REMARK  110  A    between atoms: _257  and  _260
REMARK  111  A    between atoms: _260  and  _261
REMARK  112  A    between atoms: _264  and  _266
REMARK  113  A    between atoms: _266  and  _267
REMARK  114  A    between atoms: _266  and  _269
REMARK  115  A    between atoms: _269  and  _270
REMARK  116  A    between atoms: _272  and  _274
REMARK  117  A    between atoms: _274  and  _275
REMARK  118  A    between atoms: _274  and  _277
REMARK  119  A    between atoms: _277  and  _278
REMARK  120  A    between atoms: _281  and  _283
REMARK  121  A    between atoms: _283  and  _284
REMARK  122  A    between atoms: _283  and  _286
REMARK  123  A    between atoms: _286  and  _287
REMARK  124  A    between atoms: _290  and  _292
REMARK  125  A    between atoms: _292  and  _293
REMARK  126  A    between atoms: _295  and  _297
REMARK  127  A    between atoms: _297  and  _298
REMARK  128  A    between atoms: _297  and  _300
REMARK  129  A    between atoms: _300  and  _301
REMARK  130  A    between atoms: _304  and  _306
REMARK  131  A    between atoms: _306  and  _307
REMARK  132  A    between atoms: _306  and  _309
REMARK  133  A    between atoms: _309  and  _310
REMARK  134  A    between atoms: _313  and  _315
REMARK  135  A    between atoms: _315  and  _316
REMARK  136  A    between atoms: _315  and  _318
REMARK  137  A    between atoms: _318  and  _319
REMARK  138  A    between atoms: _322  and  _324
REMARK  139  A    between atoms: _324  and  _325
REMARK  140  A    between atoms: _328  and  _330
REMARK  141  A    between atoms: _330  and  _331
REMARK  142  A    between atoms: _330  and  _333
REMARK  143  A    between atoms: _333  and  _334
REMARK  144  A    between atoms: _340  and  _342
REMARK  145  A    between atoms: _342  and  _343
REMARK  146  A    between atoms: _342  and  _345
REMARK  147  A    between atoms: _345  and  _346
REMARK  148  A    between atoms: _349  and  _351
REMARK  149  A    between atoms: _351  and  _352
REMARK  150  A    between atoms: _351  and  _354
REMARK  151  A    between atoms: _354  and  _355
REMARK  152  A    between atoms: _358  and  _360
REMARK  153  A    between atoms: _360  and  _361
REMARK  154  A    between atoms: _360  and  _363
REMARK  155  A    between atoms: _363  and  _364
REMARK  156  A    between atoms: _369  and  _371
REMARK  157  A    between atoms: _371  and  _372
REMARK  158  A    between atoms: _371  and  _374
REMARK  159  A    between atoms: _374  and  _375
REMARK  160  A    between atoms: _378  and  _380
REMARK  161  A    between atoms: _380  and  _381
REMARK  162  A    between atoms: _380  and  _383
REMARK  163  A    between atoms: _383  and  _384
REMARK  164  A    between atoms: _384  and  _385
REMARK  165  A    between atoms: _390  and  _392
REMARK  166  A    between atoms: _392  and  _393
REMARK  167  A    between atoms: _392  and  _395
REMARK  168  A    between atoms: _395  and  _396
REMARK  169  A    between atoms: _396  and  _397
REMARK  170  A    between atoms: _402  and  _404
REMARK  171  A    between atoms: _404  and  _405
REMARK  172  A    between atoms: _407  and  _409
REMARK  173  A    between atoms: _409  and  _410
REMARK  174  A    between atoms: _409  and  _412
REMARK  175  A    between atoms: _412  and  _413
REMARK  176  A    between atoms: _419  and  _421
REMARK  177  A    between atoms: _421  and  _422
REMARK  178  A    between atoms: _421  and  _424
REMARK  179  A    between atoms: _424  and  _425
REMARK  180  A    between atoms: _428  and  _430
REMARK  181  A    between atoms: _430  and  _431
REMARK  182  A    between atoms: _434  and  _436
REMARK  183  A    between atoms: _436  and  _437
REMARK  184  A    between atoms: _436  and  _439
REMARK  185  A    between atoms: _439  and  _440
REMARK  186  A    between atoms: _443  and  _445
REMARK  187  A    between atoms: _445  and  _446
REMARK  188  A    between atoms: _445  and  _448
REMARK  189  A    between atoms: _448  and  _449
REMARK  190  A    between atoms: _452  and  _454
REMARK  191  A    between atoms: _454  and  _455
REMARK  192  A    between atoms: _457  and  _459
REMARK  193  A    between atoms: _459  and  _460
REMARK  194  A    between atoms: _459  and  _462
REMARK  195  A    between atoms: _462  and  _463
REMARK  196  A    between atoms: _466  and  _468
REMARK  197  A    between atoms: _468  and  _469
REMARK  198  A    between atoms: _468  and  _471
REMARK  199  A    between atoms: _471  and  _472
REMARK  200  A    between atoms: _475  and  _477
REMARK  201  A    between atoms: _477  and  _478
REMARK  202  A    between atoms: _477  and  _480
REMARK  203  A    between atoms: _480  and  _481
REMARK  204  A    between atoms: _484  and  _486
REMARK  205  A    between atoms: _486  and  _487
REMARK  206  A    between atoms: _486  and  _489
REMARK  207  A    between atoms: _489  and  _490
REMARK  208  A    between atoms: _495  and  _496
REMARK  209  A    between atoms: _498  and  _500
REMARK  210  A    between atoms: _500  and  _501
REMARK  211  A    between atoms: _500  and  _503
REMARK  212  A    between atoms: _503  and  _504
REMARK  213  A    between atoms: _510  and  _512
REMARK  214  A    between atoms: _512  and  _513
REMARK  215  A    between atoms: _515  and  _517
REMARK  216  A    between atoms: _517  and  _518
REMARK  217  A    between atoms: _517  and  _520
REMARK  218  A    between atoms: _520  and  _521
REMARK  219  A    between atoms: _524  and  _526
REMARK  220  A    between atoms: _526  and  _527
REMARK  221  A    between atoms: _529  and  _531
REMARK  222  A    between atoms: _531  and  _532
REMARK  223  A    between atoms: _531  and  _534
REMARK  224  A    between atoms: _534  and  _535
REMARK  225  A    between atoms: _538  and  _540
REMARK  226  A    between atoms: _540  and  _541
REMARK  227  A    between atoms: _540  and  _543
REMARK  228  A    between atoms: _543  and  _544
REMARK  229  A    between atoms: _549  and  _551
REMARK  230  A    between atoms: _551  and  _552
REMARK  231  A    between atoms: _551  and  _554
REMARK  232  A    between atoms: _554  and  _555
REMARK  233  A    between atoms: _558  and  _560
REMARK  234  A    between atoms: _560  and  _561
REMARK  235  A    between atoms: _563  and  _565
REMARK  236  A    between atoms: _565  and  _566
REMARK  237  A    between atoms: _565  and  _568
REMARK  238  A    between atoms: _568  and  _569
REMARK                            x       y       z     vdW  Elec       q    Type
REMARK                         _______ _______ _______ _____ _____    ______ ____
ROOT
ATOM      1  O   HOH     1      -7.608   7.786   1.770  0.00  0.00    +0.000 OA
ENDROOT
TORSDOF 0
REMARK  Name = ../refined-set-2016/3prs/3prs_pocket.pdb
REMARK  238 active torsions:
REMARK  status: ('A' for Active; 'I' for Inactive)
REMARK    1  A    between atoms: _1  and  _3
REMARK    2  A    between atoms: _3  and  _4
REMARK    3  A    between atoms: _3  and  _6
REMARK    4  A    between atoms: _6  and  _7
REMARK    5  A    between atoms: _10  and  _12
REMARK    6  A    between atoms: _12  and  _13
REMARK    7  A    between atoms: _12  and  _15
REMARK    8  A    between atoms: _15  and  _16
REMARK    9  A    between atoms: _19  and  _21
REMARK   10  A    between atoms: _21  and  _22
REMARK   11  A    between atoms: _21  and  _24
REMARK   12  A    between atoms: _24  and  _25
REMARK   13  A    between atoms: _28  and  _30
REMARK   14  A    between atoms: _30  and  _31
REMARK   15  A    between atoms: _30  and  _33
REMARK   16  A    between atoms: _33  and  _34
REMARK   17  A    between atoms: _37  and  _39
REMARK   18  A    between atoms: _39  and  _40
REMARK   19  A    between atoms: _39  and  _42
REMARK   20  A    between atoms: _42  and  _43
REMARK   21  A    between atoms: _46  and  _48
REMARK   22  A    between atoms: _48  and  _49
REMARK   23  A    between atoms: _52  and  _54
REMARK   24  A    between atoms: _54  and  _55
REMARK   25  A    between atoms: _54  and  _57
REMARK   26  A    between atoms: _57  and  _58
REMARK   27  A    between atoms: _63  and  _64
REMARK   28  A    between atoms: _66  and  _68
REMARK   29  A    between atoms: _68  and  _69
REMARK   30  A    between atoms: _68  and  _71
REMARK   31  A    between atoms: _71  and  _72
REMARK   32  A    between atoms: _75  and  _77
REMARK   33  A    between atoms: _77  and  _78
REMARK   34  A    between atoms: _77  and  _80
REMARK   35  A    between atoms: _80  and  _81
REMARK   36  A    between atoms: _87  and  _89
REMARK   37  A    between atoms: _89  and  _90
REMARK   38  A    between atoms: _89  and  _92
REMARK   39  A    between atoms: _92  and  _93
REMARK   40  A    between atoms: _96  and  _98
REMARK   41  A    between atoms: _98  and  _99
REMARK   42  A    between atoms: _98  and  _101
REMARK   43  A    between atoms: _101  and  _102
REMARK   44  A    between atoms: _105  and  _107
REMARK   45  A    between atoms: _107  and  _108
REMARK   46  A    between atoms: _110  and  _112
REMARK   47  A    between atoms: _112  and  _113
REMARK   48  A    between atoms: _112  and  _115
REMARK   49  A    between atoms: _115  and  _116
REMARK   50  A    between atoms: _118  and  _120
REMARK   51  A    between atoms: _120  and  _121
REMARK   52  A    between atoms: _120  and  _123
REMARK   53  A    between atoms: _123  and  _124
REMARK   54  A    between atoms: _126  and  _128
REMARK   55  A    between atoms: _128  and  _129
REMARK   56  A    between atoms: _128  and  _131
REMARK   57  A    between atoms: _131  and  _132
REMARK   58  A    between atoms: _135  and  _137
REMARK   59  A    between atoms: _137  and  _138
REMARK   60  A    between atoms: _137  and  _140
REMARK   61  A    between atoms: _140  and  _141
REMARK   62  A    between atoms: _151  and  _153
REMARK   63  A    between atoms: _153  and  _154
REMARK   64  A    between atoms: _153  and  _156
REMARK   65  A    between atoms: _156  and  _157
REMARK   66  A    between atoms: _159  and  _161
REMARK   67  A    between atoms: _161  and  _162
REMARK   68  A    between atoms: _161  and  _164
REMARK   69  A    between atoms: _164  and  _165
REMARK   70  A    between atoms: _168  and  _170
REMARK   71  A    between atoms: _170  and  _171
REMARK   72  A    between atoms: _170  and  _173
REMARK   73  A    between atoms: _173  and  _174
REMARK   74  A    between atoms: _176  and  _178
REMARK   75  A    between atoms: _178  and  _179
REMARK   76  A    between atoms: _178  and  _181
REMARK   77  A    between atoms: _181  and  _182
REMARK   78  A    between atoms: _187  and  _188
REMARK   79  A    between atoms: _190  and  _192
REMARK   80  A    between atoms: _192  and  _193
REMARK   81  A    between atoms: _195  and  _197
REMARK   82  A    between atoms: _197  and  _198
REMARK   83  A    between atoms: _197  and  _200
REMARK   84  A    between atoms: _200  and  _201
REMARK   85  A    between atoms: _204  and  _206
REMARK   86  A    between atoms: _206  and  _207
REMARK   87  A    between atoms: _209  and  _211
REMARK   88  A    between atoms: _211  and  _212
REMARK   89  A    between atoms: _211  and  _214
REMARK   90  A    between atoms: _214  and  _215
REMARK   91  A    between atoms: _217  and  _219
REMARK   92  A    between atoms: _219  and  _220
REMARK   93  A    between atoms: _219  and  _222
REMARK   94  A    between atoms: _222  and  _223
REMARK   95  A    between atoms: _225  and  _227
REMARK   96  A    between atoms: _227  and  _228
REMARK   97  A    between atoms: _227  and  _230
REMARK   98  A    between atoms: _230  and  _231
REMARK   99  A    between atoms: _233  and  _235
REMARK  100  A    between atoms: _235  and  _236
REMARK  101  A    between atoms: _235  and  _238
REMARK  102  A    between atoms: _238  and  _239
REMARK  103  A    between atoms: _245  and  _247
REMARK  104  A    between atoms: _247  and  _248
REMARK  105  A    between atoms: _247  and  _250
REMARK  106  A    between atoms: _250  and  _251
REMARK  107  A    between atoms: _251  and  _252
REMARK  108  A    between atoms: _255  and  _257
REMARK  109  A    between atoms: _257  and  _258
REMARK  110  A    between atoms: _257  and  _260
REMARK  111  A    between atoms: _260  and  _261
REMARK  112  A    between atoms: _264  and  _266
REMARK  113  A    between atoms: _266  and  _267
REMARK  114  A    between atoms: _266  and  _269
REMARK  115  A    between atoms: _269  and  _270
REMARK  116  A    between atoms: _272  and  _274
REMARK  117  A    between atoms: _274  and  _275
REMARK  118  A    between atoms: _274  and  _277
REMARK  119  A    between atoms: _277  and  _278
REMARK  120  A    between atoms: _281  and  _283
REMARK  121  A    between atoms: _283  and  _284
REMARK  122  A    between atoms: _283  and  _286
REMARK  123  A    between atoms: _286  and  _287
REMARK  124  A    between atoms: _290  and  _292
REMARK  125  A    between atoms: _292  and  _293
REMARK  126  A    between atoms: _295  and  _297
REMARK  127  A    between atoms: _297  and  _298
REMARK  128  A    between atoms: _297  and  _300
REMARK  129  A    between atoms: _300  and  _301
REMARK  130  A    between atoms: _304  and  _306
REMARK  131  A    between atoms: _306  and  _307
REMARK  132  A    between atoms: _306  and  _309
REMARK  133  A    between atoms: _309  and  _310
REMARK  134  A    between atoms: _313  and  _315
REMARK  135  A    between atoms: _315  and  _316
REMARK  136  A    between atoms: _315  and  _318
REMARK  137  A    between atoms: _318  and  _319
REMARK  138  A    between atoms: _322  and  _324
REMARK  139  A    between atoms: _324  and  _325
REMARK  140  A    between atoms: _328  and  _330
REMARK  141  A    between atoms: _330  and  _331
REMARK  142  A    between atoms: _330  and  _333
REMARK  143  A    between atoms: _333  and  _334
REMARK  144  A    between atoms: _340  and  _342
REMARK  145  A    between atoms: _342  and  _343
REMARK  146  A    between atoms: _342  and  _345
REMARK  147  A    between atoms: _345  and  _346
REMARK  148  A    between atoms: _349  and  _351
REMARK  149  A    between atoms: _351  and  _352
REMARK  150  A    between atoms: _351  and  _354
REMARK  151  A    between atoms: _354  and  _355
REMARK  152  A    between atoms: _358  and  _360
REMARK  153  A    between atoms: _360  and  _361
REMARK  154  A    between atoms: _360  and  _363
REMARK  155  A    between atoms: _363  and  _364
REMARK  156  A    between atoms: _369  and  _371
REMARK  157  A    between atoms: _371  and  _372
REMARK  158  A    between atoms: _371  and  _374
REMARK  159  A    between atoms: _374  and  _375
REMARK  160  A    between atoms: _378  and  _380
REMARK  161  A    between atoms: _380  and  _381
REMARK  162  A    between atoms: _380  and  _383
REMARK  163  A    between atoms: _383  and  _384
REMARK  164  A    between atoms: _384  and  _385
REMARK  165  A    between atoms: _390  and  _392
REMARK  166  A    between atoms: _392  and  _393
REMARK  167  A    between atoms: _392  and  _395
REMARK  168  A    between atoms: _395  and  _396
REMARK  169  A    between atoms: _396  and  _397
REMARK  170  A    between atoms: _402  and  _404
REMARK  171  A    between atoms: _404  and  _405
REMARK  172  A    between atoms: _407  and  _409
REMARK  173  A    between atoms: _409  and  _410
REMARK  174  A    between atoms: _409  and  _412
REMARK  175  A    between atoms: _412  and  _413
REMARK  176  A    between atoms: _419  and  _421
REMARK  177  A    between atoms: _421  and  _422
REMARK  178  A    between atoms: _421  and  _424
REMARK  179  A    between atoms: _424  and  _425
REMARK  180  A    between atoms: _428  and  _430
REMARK  181  A    between atoms: _430  and  _431
REMARK  182  A    between atoms: _434  and  _436
REMARK  183  A    between atoms: _436  and  _437
REMARK  184  A    between atoms: _436  and  _439
REMARK  185  A    between atoms: _439  and  _440
REMARK  186  A    between atoms: _443  and  _445
REMARK  187  A    between atoms: _445  and  _446
REMARK  188  A    between atoms: _445  and  _448
REMARK  189  A    between atoms: _448  and  _449
REMARK  190  A    between atoms: _452  and  _454
REMARK  191  A    between atoms: _454  and  _455
REMARK  192  A    between atoms: _457  and  _459
REMARK  193  A    between atoms: _459  and  _460
REMARK  194  A    between atoms: _459  and  _462
REMARK  195  A    between atoms: _462  and  _463
REMARK  196  A    between atoms: _466  and  _468
REMARK  197  A    between atoms: _468  and  _469
REMARK  198  A    between atoms: _468  and  _471
REMARK  199  A    between atoms: _471  and  _472
REMARK  200  A    between atoms: _475  and  _477
REMARK  201  A    between atoms: _477  and  _478
REMARK  202  A    between atoms: _477  and  _480
REMARK  203  A    between atoms: _480  and  _481
REMARK  204  A    between atoms: _484  and  _486
REMARK  205  A    between atoms: _486  and  _487
REMARK  206  A    between atoms: _486  and  _489
REMARK  207  A    between atoms: _489  and  _490
REMARK  208  A    between atoms: _495  and  _496
REMARK  209  A    between atoms: _498  and  _500
REMARK  210  A    between atoms: _500  and  _501
REMARK  211  A    between atoms: _500  and  _503
REMARK  212  A    between atoms: _503  and  _504
REMARK  213  A    between atoms: _510  and  _512
REMARK  214  A    between atoms: _512  and  _513
REMARK  215  A    between atoms: _515  and  _517
REMARK  216  A    between atoms: _517  and  _518
REMARK  217  A    between atoms: _517  and  _520
REMARK  218  A    between atoms: _520  and  _521
REMARK  219  A    between atoms: _524  and  _526
REMARK  220  A    between atoms: _526  and  _527
REMARK  221  A    between atoms: _529  and  _531
REMARK  222  A    between atoms: _531  and  _532
REMARK  223  A    between atoms: _531  and  _534
REMARK  224  A    between atoms: _534  and  _535
REMARK  225  A    between atoms: _538  and  _540
REMARK  226  A    between atoms: _540  and  _541
REMARK  227  A    between atoms: _540  and  _543
REMARK  228  A    between atoms: _543  and  _544
REMARK  229  A    between atoms: _549  and  _551
REMARK  230  A    between atoms: _551  and  _552
REMARK  231  A    between atoms: _551  and  _554
REMARK  232  A    between atoms: _554  and  _555
REMARK  233  A    between atoms: _558  and  _560
REMARK  234  A    between atoms: _560  and  _561
REMARK  235  A    between atoms: _563  and  _565
REMARK  236  A    between atoms: _565  and  _566
REMARK  237  A    between atoms: _565  and  _568
REMARK  238  A    between atoms: _568  and  _569
REMARK                            x       y       z     vdW  Elec       q    Type
REMARK                         _______ _______ _______ _____ _____    ______ ____
ROOT
ATOM      1  O   HOH     1      -6.102   1.870  11.589  0.00  0.00    +0.000 OA
ENDROOT
TORSDOF 0
REMARK  Name = ../refined-set-2016/3prs/3prs_pocket.pdb
REMARK  238 active torsions:
REMARK  status: ('A' for Active; 'I' for Inactive)
REMARK    1  A    between atoms: _1  and  _3
REMARK    2  A    between atoms: _3  and  _4
REMARK    3  A    between atoms: _3  and  _6
REMARK    4  A    between atoms: _6  and  _7
REMARK    5  A    between atoms: _10  and  _12
REMARK    6  A    between atoms: _12  and  _13
REMARK    7  A    between atoms: _12  and  _15
REMARK    8  A    between atoms: _15  and  _16
REMARK    9  A    between atoms: _19  and  _21
REMARK   10  A    between atoms: _21  and  _22
REMARK   11  A    between atoms: _21  and  _24
REMARK   12  A    between atoms: _24  and  _25
REMARK   13  A    between atoms: _28  and  _30
REMARK   14  A    between atoms: _30  and  _31
REMARK   15  A    between atoms: _30  and  _33
REMARK   16  A    between atoms: _33  and  _34
REMARK   17  A    between atoms: _37  and  _39
REMARK   18  A    between atoms: _39  and  _40
REMARK   19  A    between atoms: _39  and  _42
REMARK   20  A    between atoms: _42  and  _43
REMARK   21  A    between atoms: _46  and  _48
REMARK   22  A    between atoms: _48  and  _49
REMARK   23  A    between atoms: _52  and  _54
REMARK   24  A    between atoms: _54  and  _55
REMARK   25  A    between atoms: _54  and  _57
REMARK   26  A    between atoms: _57  and  _58
REMARK   27  A    between atoms: _63  and  _64
REMARK   28  A    between atoms: _66  and  _68
REMARK   29  A    between atoms: _68  and  _69
REMARK   30  A    between atoms: _68  and  _71
REMARK   31  A    between atoms: _71  and  _72
REMARK   32  A    between atoms: _75  and  _77
REMARK   33  A    between atoms: _77  and  _78
REMARK   34  A    between atoms: _77  and  _80
REMARK   35  A    between atoms: _80  and  _81
REMARK   36  A    between atoms: _87  and  _89
REMARK   37  A    between atoms: _89  and  _90
REMARK   38  A    between atoms: _89  and  _92
REMARK   39  A    between atoms: _92  and  _93
REMARK   40  A    between atoms: _96  and  _98
REMARK   41  A    between atoms: _98  and  _99
REMARK   42  A    between atoms: _98  and  _101
REMARK   43  A    between atoms: _101  and  _102
REMARK   44  A    between atoms: _105  and  _107
REMARK   45  A    between atoms: _107  and  _108
REMARK   46  A    between atoms: _110  and  _112
REMARK   47  A    between atoms: _112  and  _113
REMARK   48  A    between atoms: _112  and  _115
REMARK   49  A    between atoms: _115  and  _116
REMARK   50  A    between atoms: _118  and  _120
REMARK   51  A    between atoms: _120  and  _121
REMARK   52  A    between atoms: _120  and  _123
REMARK   53  A    between atoms: _123  and  _124
REMARK   54  A    between atoms: _126  and  _128
REMARK   55  A    between atoms: _128  and  _129
REMARK   56  A    between atoms: _128  and  _131
REMARK   57  A    between atoms: _131  and  _132
REMARK   58  A    between atoms: _135  and  _137
REMARK   59  A    between atoms: _137  and  _138
REMARK   60  A    between atoms: _137  and  _140
REMARK   61  A    between atoms: _140  and  _141
REMARK   62  A    between atoms: _151  and  _153
REMARK   63  A    between atoms: _153  and  _154
REMARK   64  A    between atoms: _153  and  _156
REMARK   65  A    between atoms: _156  and  _157
REMARK   66  A    between atoms: _159  and  _161
REMARK   67  A    between atoms: _161  and  _162
REMARK   68  A    between atoms: _161  and  _164
REMARK   69  A    between atoms: _164  and  _165
REMARK   70  A    between atoms: _168  and  _170
REMARK   71  A    between atoms: _170  and  _171
REMARK   72  A    between atoms: _170  and  _173
REMARK   73  A    between atoms: _173  and  _174
REMARK   74  A    between atoms: _176  and  _178
REMARK   75  A    between atoms: _178  and  _179
REMARK   76  A    between atoms: _178  and  _181
REMARK   77  A    between atoms: _181  and  _182
REMARK   78  A    between atoms: _187  and  _188
REMARK   79  A    between atoms: _190  and  _192
REMARK   80  A    between atoms: _192  and  _193
REMARK   81  A    between atoms: _195  and  _197
REMARK   82  A    between atoms: _197  and  _198
REMARK   83  A    between atoms: _197  and  _200
REMARK   84  A    between atoms: _200  and  _201
REMARK   85  A    between atoms: _204  and  _206
REMARK   86  A    between atoms: _206  and  _207
REMARK   87  A    between atoms: _209  and  _211
REMARK   88  A    between atoms: _211  and  _212
REMARK   89  A    between atoms: _211  and  _214
REMARK   90  A    between atoms: _214  and  _215
REMARK   91  A    between atoms: _217  and  _219
REMARK   92  A    between atoms: _219  and  _220
REMARK   93  A    between atoms: _219  and  _222
REMARK   94  A    between atoms: _222  and  _223
REMARK   95  A    between atoms: _225  and  _227
REMARK   96  A    between atoms: _227  and  _228
REMARK   97  A    between atoms: _227  and  _230
REMARK   98  A    between atoms: _230  and  _231
REMARK   99  A    between atoms: _233  and  _235
REMARK  100  A    between atoms: _235  and  _236
REMARK  101  A    between atoms: _235  and  _238
REMARK  102  A    between atoms: _238  and  _239
REMARK  103  A    between atoms: _245  and  _247
REMARK  104  A    between atoms: _247  and  _248
REMARK  105  A    between atoms: _247  and  _250
REMARK  106  A    between atoms: _250  and  _251
REMARK  107  A    between atoms: _251  and  _252
REMARK  108  A    between atoms: _255  and  _257
REMARK  109  A    between atoms: _257  and  _258
REMARK  110  A    between atoms: _257  and  _260
REMARK  111  A    between atoms: _260  and  _261
REMARK  112  A    between atoms: _264  and  _266
REMARK  113  A    between atoms: _266  and  _267
REMARK  114  A    between atoms: _266  and  _269
REMARK  115  A    between atoms: _269  and  _270
REMARK  116  A    between atoms: _272  and  _274
REMARK  117  A    between atoms: _274  and  _275
REMARK  118  A    between atoms: _274  and  _277
REMARK  119  A    between atoms: _277  and  _278
REMARK  120  A    between atoms: _281  and  _283
REMARK  121  A    between atoms: _283  and  _284
REMARK  122  A    between atoms: _283  and  _286
REMARK  123  A    between atoms: _286  and  _287
REMARK  124  A    between atoms: _290  and  _292
REMARK  125  A    between atoms: _292  and  _293
REMARK  126  A    between atoms: _295  and  _297
REMARK  127  A    between atoms: _297  and  _298
REMARK  128  A    between atoms: _297  and  _300
REMARK  129  A    between atoms: _300  and  _301
REMARK  130  A    between atoms: _304  and  _306
REMARK  131  A    between atoms: _306  and  _307
REMARK  132  A    between atoms: _306  and  _309
REMARK  133  A    between atoms: _309  and  _310
REMARK  134  A    between atoms: _313  and  _315
REMARK  135  A    between atoms: _315  and  _316
REMARK  136  A    between atoms: _315  and  _318
REMARK  137  A    between atoms: _318  and  _319
REMARK  138  A    between atoms: _322  and  _324
REMARK  139  A    between atoms: _324  and  _325
REMARK  140  A    between atoms: _328  and  _330
REMARK  141  A    between atoms: _330  and  _331
REMARK  142  A    between atoms: _330  and  _333
REMARK  143  A    between atoms: _333  and  _334
REMARK  144  A    between atoms: _340  and  _342
REMARK  145  A    between atoms: _342  and  _343
REMARK  146  A    between atoms: _342  and  _345
REMARK  147  A    between atoms: _345  and  _346
REMARK  148  A    between atoms: _349  and  _351
REMARK  149  A    between atoms: _351  and  _352
REMARK  150  A    between atoms: _351  and  _354
REMARK  151  A    between atoms: _354  and  _355
REMARK  152  A    between atoms: _358  and  _360
REMARK  153  A    between atoms: _360  and  _361
REMARK  154  A    between atoms: _360  and  _363
REMARK  155  A    between atoms: _363  and  _364
REMARK  156  A    between atoms: _369  and  _371
REMARK  157  A    between atoms: _371  and  _372
REMARK  158  A    between atoms: _371  and  _374
REMARK  159  A    between atoms: _374  and  _375
REMARK  160  A    between atoms: _378  and  _380
REMARK  161  A    between atoms: _380  and  _381
REMARK  162  A    between atoms: _380  and  _383
REMARK  163  A    between atoms: _383  and  _384
REMARK  164  A    between atoms: _384  and  _385
REMARK  165  A    between atoms: _390  and  _392
REMARK  166  A    between atoms: _392  and  _393
REMARK  167  A    between atoms: _392  and  _395
REMARK  168  A    between atoms: _395  and  _396
REMARK  169  A    between atoms: _396  and  _397
REMARK  170  A    between atoms: _402  and  _404
REMARK  171  A    between atoms: _404  and  _405
REMARK  172  A    between atoms: _407  and  _409
REMARK  173  A    between atoms: _409  and  _410
REMARK  174  A    between atoms: _409  and  _412
REMARK  175  A    between atoms: _412  and  _413
REMARK  176  A    between atoms: _419  and  _421
REMARK  177  A    between atoms: _421  and  _422
REMARK  178  A    between atoms: _421  and  _424
REMARK  179  A    between atoms: _424  and  _425
REMARK  180  A    between atoms: _428  and  _430
REMARK  181  A    between atoms: _430  and  _431
REMARK  182  A    between atoms: _434  and  _436
REMARK  183  A    between atoms: _436  and  _437
REMARK  184  A    between atoms: _436  and  _439
REMARK  185  A    between atoms: _439  and  _440
REMARK  186  A    between atoms: _443  and  _445
REMARK  187  A    between atoms: _445  and  _446
REMARK  188  A    between atoms: _445  and  _448
REMARK  189  A    between atoms: _448  and  _449
REMARK  190  A    between atoms: _452  and  _454
REMARK  191  A    between atoms: _454  and  _455
REMARK  192  A    between atoms: _457  and  _459
REMARK  193  A    between atoms: _459  and  _460
REMARK  194  A    between atoms: _459  and  _462
REMARK  195  A    between atoms: _462  and  _463
REMARK  196  A    between atoms: _466  and  _468
REMARK  197  A    between atoms: _468  and  _469
REMARK  198  A    between atoms: _468  and  _471
REMARK  199  A    between atoms: _471  and  _472
REMARK  200  A    between atoms: _475  and  _477
REMARK  201  A    between atoms: _477  and  _478
REMARK  202  A    between atoms: _477  and  _480
REMARK  203  A    between atoms: _480  and  _481
REMARK  204  A    between atoms: _484  and  _486
REMARK  205  A    between atoms: _486  and  _487
REMARK  206  A    between atoms: _486  and  _489
REMARK  207  A    between atoms: _489  and  _490
REMARK  208  A    between atoms: _495  and  _496
REMARK  209  A    between atoms: _498  and  _500
REMARK  210  A    between atoms: _500  and  _501
REMARK  211  A    between atoms: _500  and  _503
REMARK  212  A    between atoms: _503  and  _504
REMARK  213  A    between atoms: _510  and  _512
REMARK  214  A    between atoms: _512  and  _513
REMARK  215  A    between atoms: _515  and  _517
REMARK  216  A    between atoms: _517  and  _518
REMARK  217  A    between atoms: _517  and  _520
REMARK  218  A    between atoms: _520  and  _521
REMARK  219  A    between atoms: _524  and  _526
REMARK  220  A    between atoms: _526  and  _527
REMARK  221  A    between atoms: _529  and  _531
REMARK  222  A    between atoms: _531  and  _532
REMARK  223  A    between atoms: _531  and  _534
REMARK  224  A    between atoms: _534  and  _535
REMARK  225  A    between atoms: _538  and  _540
REMARK  226  A    between atoms: _540  and  _541
REMARK  227  A    between atoms: _540  and  _543
REMARK  228  A    between atoms: _543  and  _544
REMARK  229  A    between atoms: _549  and  _551
REMARK  230  A    between atoms: _551  and  _552
REMARK  231  A    between atoms: _551  and  _554
REMARK  232  A    between atoms: _554  and  _555
REMARK  233  A    between atoms: _558  and  _560
REMARK  234  A    between atoms: _560  and  _561
REMARK  235  A    between atoms: _563  and  _565
REMARK  236  A    between atoms: _565  and  _566
REMARK  237  A    between atoms: _565  and  _568
REMARK  238  A    between atoms: _568  and  _569
REMARK                            x       y       z     vdW  Elec       q    Type
REMARK                         _______ _______ _______ _____ _____    ______ ____
ROOT
ATOM      1  O   HOH     1      -8.271  10.098   0.268  0.00  0.00    +0.000 OA
ENDROOT
TORSDOF 0
REMARK  Name = ../refined-set-2016/3prs/3prs_pocket.pdb
REMARK  238 active torsions:
REMARK  status: ('A' for Active; 'I' for Inactive)
REMARK    1  A    between atoms: _1  and  _3
REMARK    2  A    between atoms: _3  and  _4
REMARK    3  A    between atoms: _3  and  _6
REMARK    4  A    between atoms: _6  and  _7
REMARK    5  A    between atoms: _10  and  _12
REMARK    6  A    between atoms: _12  and  _13
REMARK    7  A    between atoms: _12  and  _15
REMARK    8  A    between atoms: _15  and  _16
REMARK    9  A    between atoms: _19  and  _21
REMARK   10  A    between atoms: _21  and  _22
REMARK   11  A    between atoms: _21  and  _24
REMARK   12  A    between atoms: _24  and  _25
REMARK   13  A    between atoms: _28  and  _30
REMARK   14  A    between atoms: _30  and  _31
REMARK   15  A    between atoms: _30  and  _33
REMARK   16  A    between atoms: _33  and  _34
REMARK   17  A    between atoms: _37  and  _39
REMARK   18  A    between atoms: _39  and  _40
REMARK   19  A    between atoms: _39  and  _42
REMARK   20  A    between atoms: _42  and  _43
REMARK   21  A    between atoms: _46  and  _48
REMARK   22  A    between atoms: _48  and  _49
REMARK   23  A    between atoms: _52  and  _54
REMARK   24  A    between atoms: _54  and  _55
REMARK   25  A    between atoms: _54  and  _57
REMARK   26  A    between atoms: _57  and  _58
REMARK   27  A    between atoms: _63  and  _64
REMARK   28  A    between atoms: _66  and  _68
REMARK   29  A    between atoms: _68  and  _69
REMARK   30  A    between atoms: _68  and  _71
REMARK   31  A    between atoms: _71  and  _72
REMARK   32  A    between atoms: _75  and  _77
REMARK   33  A    between atoms: _77  and  _78
REMARK   34  A    between atoms: _77  and  _80
REMARK   35  A    between atoms: _80  and  _81
REMARK   36  A    between atoms: _87  and  _89
REMARK   37  A    between atoms: _89  and  _90
REMARK   38  A    between atoms: _89  and  _92
REMARK   39  A    between atoms: _92  and  _93
REMARK   40  A    between atoms: _96  and  _98
REMARK   41  A    between atoms: _98  and  _99
REMARK   42  A    between atoms: _98  and  _101
REMARK   43  A    between atoms: _101  and  _102
REMARK   44  A    between atoms: _105  and  _107
REMARK   45  A    between atoms: _107  and  _108
REMARK   46  A    between atoms: _110  and  _112
REMARK   47  A    between atoms: _112  and  _113
REMARK   48  A    between atoms: _112  and  _115
REMARK   49  A    between atoms: _115  and  _116
REMARK   50  A    between atoms: _118  and  _120
REMARK   51  A    between atoms: _120  and  _121
REMARK   52  A    between atoms: _120  and  _123
REMARK   53  A    between atoms: _123  and  _124
REMARK   54  A    between atoms: _126  and  _128
REMARK   55  A    between atoms: _128  and  _129
REMARK   56  A    between atoms: _128  and  _131
REMARK   57  A    between atoms: _131  and  _132
REMARK   58  A    between atoms: _135  and  _137
REMARK   59  A    between atoms: _137  and  _138
REMARK   60  A    between atoms: _137  and  _140
REMARK   61  A    between atoms: _140  and  _141
REMARK   62  A    between atoms: _151  and  _153
REMARK   63  A    between atoms: _153  and  _154
REMARK   64  A    between atoms: _153  and  _156
REMARK   65  A    between atoms: _156  and  _157
REMARK   66  A    between atoms: _159  and  _161
REMARK   67  A    between atoms: _161  and  _162
REMARK   68  A    between atoms: _161  and  _164
REMARK   69  A    between atoms: _164  and  _165
REMARK   70  A    between atoms: _168  and  _170
REMARK   71  A    between atoms: _170  and  _171
REMARK   72  A    between atoms: _170  and  _173
REMARK   73  A    between atoms: _173  and  _174
REMARK   74  A    between atoms: _176  and  _178
REMARK   75  A    between atoms: _178  and  _179
REMARK   76  A    between atoms: _178  and  _181
REMARK   77  A    between atoms: _181  and  _182
REMARK   78  A    between atoms: _187  and  _188
REMARK   79  A    between atoms: _190  and  _192
REMARK   80  A    between atoms: _192  and  _193
REMARK   81  A    between atoms: _195  and  _197
REMARK   82  A    between atoms: _197  and  _198
REMARK   83  A    between atoms: _197  and  _200
REMARK   84  A    between atoms: _200  and  _201
REMARK   85  A    between atoms: _204  and  _206
REMARK   86  A    between atoms: _206  and  _207
REMARK   87  A    between atoms: _209  and  _211
REMARK   88  A    between atoms: _211  and  _212
REMARK   89  A    between atoms: _211  and  _214
REMARK   90  A    between atoms: _214  and  _215
REMARK   91  A    between atoms: _217  and  _219
REMARK   92  A    between atoms: _219  and  _220
REMARK   93  A    between atoms: _219  and  _222
REMARK   94  A    between atoms: _222  and  _223
REMARK   95  A    between atoms: _225  and  _227
REMARK   96  A    between atoms: _227  and  _228
REMARK   97  A    between atoms: _227  and  _230
REMARK   98  A    between atoms: _230  and  _231
REMARK   99  A    between atoms: _233  and  _235
REMARK  100  A    between atoms: _235  and  _236
REMARK  101  A    between atoms: _235  and  _238
REMARK  102  A    between atoms: _238  and  _239
REMARK  103  A    between atoms: _245  and  _247
REMARK  104  A    between atoms: _247  and  _248
REMARK  105  A    between atoms: _247  and  _250
REMARK  106  A    between atoms: _250  and  _251
REMARK  107  A    between atoms: _251  and  _252
REMARK  108  A    between atoms: _255  and  _257
REMARK  109  A    between atoms: _257  and  _258
REMARK  110  A    between atoms: _257  and  _260
REMARK  111  A    between atoms: _260  and  _261
REMARK  112  A    between atoms: _264  and  _266
REMARK  113  A    between atoms: _266  and  _267
REMARK  114  A    between atoms: _266  and  _269
REMARK  115  A    between atoms: _269  and  _270
REMARK  116  A    between atoms: _272  and  _274
REMARK  117  A    between atoms: _274  and  _275
REMARK  118  A    between atoms: _274  and  _277
REMARK  119  A    between atoms: _277  and  _278
REMARK  120  A    between atoms: _281  and  _283
REMARK  121  A    between atoms: _283  and  _284
REMARK  122  A    between atoms: _283  and  _286
REMARK  123  A    between atoms: _286  and  _287
REMARK  124  A    between atoms: _290  and  _292
REMARK  125  A    between atoms: _292  and  _293
REMARK  126  A    between atoms: _295  and  _297
REMARK  127  A    between atoms: _297  and  _298
REMARK  128  A    between atoms: _297  and  _300
REMARK  129  A    between atoms: _300  and  _301
REMARK  130  A    between atoms: _304  and  _306
REMARK  131  A    between atoms: _306  and  _307
REMARK  132  A    between atoms: _306  and  _309
REMARK  133  A    between atoms: _309  and  _310
REMARK  134  A    between atoms: _313  and  _315
REMARK  135  A    between atoms: _315  and  _316
REMARK  136  A    between atoms: _315  and  _318
REMARK  137  A    between atoms: _318  and  _319
REMARK  138  A    between atoms: _322  and  _324
REMARK  139  A    between atoms: _324  and  _325
REMARK  140  A    between atoms: _328  and  _330
REMARK  141  A    between atoms: _330  and  _331
REMARK  142  A    between atoms: _330  and  _333
REMARK  143  A    between atoms: _333  and  _334
REMARK  144  A    between atoms: _340  and  _342
REMARK  145  A    between atoms: _342  and  _343
REMARK  146  A    between atoms: _342  and  _345
REMARK  147  A    between atoms: _345  and  _346
REMARK  148  A    between atoms: _349  and  _351
REMARK  149  A    between atoms: _351  and  _352
REMARK  150  A    between atoms: _351  and  _354
REMARK  151  A    between atoms: _354  and  _355
REMARK  152  A    between atoms: _358  and  _360
REMARK  153  A    between atoms: _360  and  _361
REMARK  154  A    between atoms: _360  and  _363
REMARK  155  A    between atoms: _363  and  _364
REMARK  156  A    between atoms: _369  and  _371
REMARK  157  A    between atoms: _371  and  _372
REMARK  158  A    between atoms: _371  and  _374
REMARK  159  A    between atoms: _374  and  _375
REMARK  160  A    between atoms: _378  and  _380
REMARK  161  A    between atoms: _380  and  _381
REMARK  162  A    between atoms: _380  and  _383
REMARK  163  A    between atoms: _383  and  _384
REMARK  164  A    between atoms: _384  and  _385
REMARK  165  A    between atoms: _390  and  _392
REMARK  166  A    between atoms: _392  and  _393
REMARK  167  A    between atoms: _392  and  _395
REMARK  168  A    between atoms: _395  and  _396
REMARK  169  A    between atoms: _396  and  _397
REMARK  170  A    between atoms: _402  and  _404
REMARK  171  A    between atoms: _404  and  _405
REMARK  172  A    between atoms: _407  and  _409
REMARK  173  A    between atoms: _409  and  _410
REMARK  174  A    between atoms: _409  and  _412
REMARK  175  A    between atoms: _412  and  _413
REMARK  176  A    between atoms: _419  and  _421
REMARK  177  A    between atoms: _421  and  _422
REMARK  178  A    between atoms: _421  and  _424
REMARK  179  A    between atoms: _424  and  _425
REMARK  180  A    between atoms: _428  and  _430
REMARK  181  A    between atoms: _430  and  _431
REMARK  182  A    between atoms: _434  and  _436
REMARK  183  A    between atoms: _436  and  _437
REMARK  184  A    between atoms: _436  and  _439
REMARK  185  A    between atoms: _439  and  _440
REMARK  186  A    between atoms: _443  and  _445
REMARK  187  A    between atoms: _445  and  _446
REMARK  188  A    between atoms: _445  and  _448
REMARK  189  A    between atoms: _448  and  _449
REMARK  190  A    between atoms: _452  and  _454
REMARK  191  A    between atoms: _454  and  _455
REMARK  192  A    between atoms: _457  and  _459
REMARK  193  A    between atoms: _459  and  _460
REMARK  194  A    between atoms: _459  and  _462
REMARK  195  A    between atoms: _462  and  _463
REMARK  196  A    between atoms: _466  and  _468
REMARK  197  A    between atoms: _468  and  _469
REMARK  198  A    between atoms: _468  and  _471
REMARK  199  A    between atoms: _471  and  _472
REMARK  200  A    between atoms: _475  and  _477
REMARK  201  A    between atoms: _477  and  _478
REMARK  202  A    between atoms: _477  and  _480
REMARK  203  A    between atoms: _480  and  _481
REMARK  204  A    between atoms: _484  and  _486
REMARK  205  A    between atoms: _486  and  _487
REMARK  206  A    between atoms: _486  and  _489
REMARK  207  A    between atoms: _489  and  _490
REMARK  208  A    between atoms: _495  and  _496
REMARK  209  A    between atoms: _498  and  _500
REMARK  210  A    between atoms: _500  and  _501
REMARK  211  A    between atoms: _500  and  _503
REMARK  212  A    between atoms: _503  and  _504
REMARK  213  A    between atoms: _510  and  _512
REMARK  214  A    between atoms: _512  and  _513
REMARK  215  A    between atoms: _515  and  _517
REMARK  216  A    between atoms: _517  and  _518
REMARK  217  A    between atoms: _517  and  _520
REMARK  218  A    between atoms: _520  and  _521
REMARK  219  A    between atoms: _524  and  _526
REMARK  220  A    between atoms: _526  and  _527
REMARK  221  A    between atoms: _529  and  _531
REMARK  222  A    between atoms: _531  and  _532
REMARK  223  A    between atoms: _531  and  _534
REMARK  224  A    between atoms: _534  and  _535
REMARK  225  A    between atoms: _538  and  _540
REMARK  226  A    between atoms: _540  and  _541
REMARK  227  A    between atoms: _540  and  _543
REMARK  228  A    between atoms: _543  and  _544
REMARK  229  A    between atoms: _549  and  _551
REMARK  230  A    between atoms: _551  and  _552
REMARK  231  A    between atoms: _551  and  _554
REMARK  232  A    between atoms: _554  and  _555
REMARK  233  A    between atoms: _558  and  _560
REMARK  234  A    between atoms: _560  and  _561
REMARK  235  A    between atoms: _563  and  _565
REMARK  236  A    between atoms: _565  and  _566
REMARK  237  A    between atoms: _565  and  _568
REMARK  238  A    between atoms: _568  and  _569
REMARK                            x       y       z     vdW  Elec       q    Type
REMARK                         _______ _______ _______ _____ _____    ______ ____
ROOT
ATOM      1  O   HOH     1       1.253   9.260  18.880  0.00  0.00    +0.000 OA
ENDROOT
TORSDOF 0
REMARK  Name = ../refined-set-2016/3prs/3prs_pocket.pdb
REMARK  238 active torsions:
REMARK  status: ('A' for Active; 'I' for Inactive)
REMARK    1  A    between atoms: _1  and  _3
REMARK    2  A    between atoms: _3  and  _4
REMARK    3  A    between atoms: _3  and  _6
REMARK    4  A    between atoms: _6  and  _7
REMARK    5  A    between atoms: _10  and  _12
REMARK    6  A    between atoms: _12  and  _13
REMARK    7  A    between atoms: _12  and  _15
REMARK    8  A    between atoms: _15  and  _16
REMARK    9  A    between atoms: _19  and  _21
REMARK   10  A    between atoms: _21  and  _22
REMARK   11  A    between atoms: _21  and  _24
REMARK   12  A    between atoms: _24  and  _25
REMARK   13  A    between atoms: _28  and  _30
REMARK   14  A    between atoms: _30  and  _31
REMARK   15  A    between atoms: _30  and  _33
REMARK   16  A    between atoms: _33  and  _34
REMARK   17  A    between atoms: _37  and  _39
REMARK   18  A    between atoms: _39  and  _40
REMARK   19  A    between atoms: _39  and  _42
REMARK   20  A    between atoms: _42  and  _43
REMARK   21  A    between atoms: _46  and  _48
REMARK   22  A    between atoms: _48  and  _49
REMARK   23  A    between atoms: _52  and  _54
REMARK   24  A    between atoms: _54  and  _55
REMARK   25  A    between atoms: _54  and  _57
REMARK   26  A    between atoms: _57  and  _58
REMARK   27  A    between atoms: _63  and  _64
REMARK   28  A    between atoms: _66  and  _68
REMARK   29  A    between atoms: _68  and  _69
REMARK   30  A    between atoms: _68  and  _71
REMARK   31  A    between atoms: _71  and  _72
REMARK   32  A    between atoms: _75  and  _77
REMARK   33  A    between atoms: _77  and  _78
REMARK   34  A    between atoms: _77  and  _80
REMARK   35  A    between atoms: _80  and  _81
REMARK   36  A    between atoms: _87  and  _89
REMARK   37  A    between atoms: _89  and  _90
REMARK   38  A    between atoms: _89  and  _92
REMARK   39  A    between atoms: _92  and  _93
REMARK   40  A    between atoms: _96  and  _98
REMARK   41  A    between atoms: _98  and  _99
REMARK   42  A    between atoms: _98  and  _101
REMARK   43  A    between atoms: _101  and  _102
REMARK   44  A    between atoms: _105  and  _107
REMARK   45  A    between atoms: _107  and  _108
REMARK   46  A    between atoms: _110  and  _112
REMARK   47  A    between atoms: _112  and  _113
REMARK   48  A    between atoms: _112  and  _115
REMARK   49  A    between atoms: _115  and  _116
REMARK   50  A    between atoms: _118  and  _120
REMARK   51  A    between atoms: _120  and  _121
REMARK   52  A    between atoms: _120  and  _123
REMARK   53  A    between atoms: _123  and  _124
REMARK   54  A    between atoms: _126  and  _128
REMARK   55  A    between atoms: _128  and  _129
REMARK   56  A    between atoms: _128  and  _131
REMARK   57  A    between atoms: _131  and  _132
REMARK   58  A    between atoms: _135  and  _137
REMARK   59  A    between atoms: _137  and  _138
REMARK   60  A    between atoms: _137  and  _140
REMARK   61  A    between atoms: _140  and  _141
REMARK   62  A    between atoms: _151  and  _153
REMARK   63  A    between atoms: _153  and  _154
REMARK   64  A    between atoms: _153  and  _156
REMARK   65  A    between atoms: _156  and  _157
REMARK   66  A    between atoms: _159  and  _161
REMARK   67  A    between atoms: _161  and  _162
REMARK   68  A    between atoms: _161  and  _164
REMARK   69  A    between atoms: _164  and  _165
REMARK   70  A    between atoms: _168  and  _170
REMARK   71  A    between atoms: _170  and  _171
REMARK   72  A    between atoms: _170  and  _173
REMARK   73  A    between atoms: _173  and  _174
REMARK   74  A    between atoms: _176  and  _178
REMARK   75  A    between atoms: _178  and  _179
REMARK   76  A    between atoms: _178  and  _181
REMARK   77  A    between atoms: _181  and  _182
REMARK   78  A    between atoms: _187  and  _188
REMARK   79  A    between atoms: _190  and  _192
REMARK   80  A    between atoms: _192  and  _193
REMARK   81  A    between atoms: _195  and  _197
REMARK   82  A    between atoms: _197  and  _198
REMARK   83  A    between atoms: _197  and  _200
REMARK   84  A    between atoms: _200  and  _201
REMARK   85  A    between atoms: _204  and  _206
REMARK   86  A    between atoms: _206  and  _207
REMARK   87  A    between atoms: _209  and  _211
REMARK   88  A    between atoms: _211  and  _212
REMARK   89  A    between atoms: _211  and  _214
REMARK   90  A    between atoms: _214  and  _215
REMARK   91  A    between atoms: _217  and  _219
REMARK   92  A    between atoms: _219  and  _220
REMARK   93  A    between atoms: _219  and  _222
REMARK   94  A    between atoms: _222  and  _223
REMARK   95  A    between atoms: _225  and  _227
REMARK   96  A    between atoms: _227  and  _228
REMARK   97  A    between atoms: _227  and  _230
REMARK   98  A    between atoms: _230  and  _231
REMARK   99  A    between atoms: _233  and  _235
REMARK  100  A    between atoms: _235  and  _236
REMARK  101  A    between atoms: _235  and  _238
REMARK  102  A    between atoms: _238  and  _239
REMARK  103  A    between atoms: _245  and  _247
REMARK  104  A    between atoms: _247  and  _248
REMARK  105  A    between atoms: _247  and  _250
REMARK  106  A    between atoms: _250  and  _251
REMARK  107  A    between atoms: _251  and  _252
REMARK  108  A    between atoms: _255  and  _257
REMARK  109  A    between atoms: _257  and  _258
REMARK  110  A    between atoms: _257  and  _260
REMARK  111  A    between atoms: _260  and  _261
REMARK  112  A    between atoms: _264  and  _266
REMARK  113  A    between atoms: _266  and  _267
REMARK  114  A    between atoms: _266  and  _269
REMARK  115  A    between atoms: _269  and  _270
REMARK  116  A    between atoms: _272  and  _274
REMARK  117  A    between atoms: _274  and  _275
REMARK  118  A    between atoms: _274  and  _277
REMARK  119  A    between atoms: _277  and  _278
REMARK  120  A    between atoms: _281  and  _283
REMARK  121  A    between atoms: _283  and  _284
REMARK  122  A    between atoms: _283  and  _286
REMARK  123  A    between atoms: _286  and  _287
REMARK  124  A    between atoms: _290  and  _292
REMARK  125  A    between atoms: _292  and  _293
REMARK  126  A    between atoms: _295  and  _297
REMARK  127  A    between atoms: _297  and  _298
REMARK  128  A    between atoms: _297  and  _300
REMARK  129  A    between atoms: _300  and  _301
REMARK  130  A    between atoms: _304  and  _306
REMARK  131  A    between atoms: _306  and  _307
REMARK  132  A    between atoms: _306  and  _309
REMARK  133  A    between atoms: _309  and  _310
REMARK  134  A    between atoms: _313  and  _315
REMARK  135  A    between atoms: _315  and  _316
REMARK  136  A    between atoms: _315  and  _318
REMARK  137  A    between atoms: _318  and  _319
REMARK  138  A    between atoms: _322  and  _324
REMARK  139  A    between atoms: _324  and  _325
REMARK  140  A    between atoms: _328  and  _330
REMARK  141  A    between atoms: _330  and  _331
REMARK  142  A    between atoms: _330  and  _333
REMARK  143  A    between atoms: _333  and  _334
REMARK  144  A    between atoms: _340  and  _342
REMARK  145  A    between atoms: _342  and  _343
REMARK  146  A    between atoms: _342  and  _345
REMARK  147  A    between atoms: _345  and  _346
REMARK  148  A    between atoms: _349  and  _351
REMARK  149  A    between atoms: _351  and  _352
REMARK  150  A    between atoms: _351  and  _354
REMARK  151  A    between atoms: _354  and  _355
REMARK  152  A    between atoms: _358  and  _360
REMARK  153  A    between atoms: _360  and  _361
REMARK  154  A    between atoms: _360  and  _363
REMARK  155  A    between atoms: _363  and  _364
REMARK  156  A    between atoms: _369  and  _371
REMARK  157  A    between atoms: _371  and  _372
REMARK  158  A    between atoms: _371  and  _374
REMARK  159  A    between atoms: _374  and  _375
REMARK  160  A    between atoms: _378  and  _380
REMARK  161  A    between atoms: _380  and  _381
REMARK  162  A    between atoms: _380  and  _383
REMARK  163  A    between atoms: _383  and  _384
REMARK  164  A    between atoms: _384  and  _385
REMARK  165  A    between atoms: _390  and  _392
REMARK  166  A    between atoms: _392  and  _393
REMARK  167  A    between atoms: _392  and  _395
REMARK  168  A    between atoms: _395  and  _396
REMARK  169  A    between atoms: _396  and  _397
REMARK  170  A    between atoms: _402  and  _404
REMARK  171  A    between atoms: _404  and  _405
REMARK  172  A    between atoms: _407  and  _409
REMARK  173  A    between atoms: _409  and  _410
REMARK  174  A    between atoms: _409  and  _412
REMARK  175  A    between atoms: _412  and  _413
REMARK  176  A    between atoms: _419  and  _421
REMARK  177  A    between atoms: _421  and  _422
REMARK  178  A    between atoms: _421  and  _424
REMARK  179  A    between atoms: _424  and  _425
REMARK  180  A    between atoms: _428  and  _430
REMARK  181  A    between atoms: _430  and  _431
REMARK  182  A    between atoms: _434  and  _436
REMARK  183  A    between atoms: _436  and  _437
REMARK  184  A    between atoms: _436  and  _439
REMARK  185  A    between atoms: _439  and  _440
REMARK  186  A    between atoms: _443  and  _445
REMARK  187  A    between atoms: _445  and  _446
REMARK  188  A    between atoms: _445  and  _448
REMARK  189  A    between atoms: _448  and  _449
REMARK  190  A    between atoms: _452  and  _454
REMARK  191  A    between atoms: _454  and  _455
REMARK  192  A    between atoms: _457  and  _459
REMARK  193  A    between atoms: _459  and  _460
REMARK  194  A    between atoms: _459  and  _462
REMARK  195  A    between atoms: _462  and  _463
REMARK  196  A    between atoms: _466  and  _468
REMARK  197  A    between atoms: _468  and  _469
REMARK  198  A    between atoms: _468  and  _471
REMARK  199  A    between atoms: _471  and  _472
REMARK  200  A    between atoms: _475  and  _477
REMARK  201  A    between atoms: _477  and  _478
REMARK  202  A    between atoms: _477  and  _480
REMARK  203  A    between atoms: _480  and  _481
REMARK  204  A    between atoms: _484  and  _486
REMARK  205  A    between atoms: _486  and  _487
REMARK  206  A    between atoms: _486  and  _489
REMARK  207  A    between atoms: _489  and  _490
REMARK  208  A    between atoms: _495  and  _496
REMARK  209  A    between atoms: _498  and  _500
REMARK  210  A    between atoms: _500  and  _501
REMARK  211  A    between atoms: _500  and  _503
REMARK  212  A    between atoms: _503  and  _504
REMARK  213  A    between atoms: _510  and  _512
REMARK  214  A    between atoms: _512  and  _513
REMARK  215  A    between atoms: _515  and  _517
REMARK  216  A    between atoms: _517  and  _518
REMARK  217  A    between atoms: _517  and  _520
REMARK  218  A    between atoms: _520  and  _521
REMARK  219  A    between atoms: _524  and  _526
REMARK  220  A    between atoms: _526  and  _527
REMARK  221  A    between atoms: _529  and  _531
REMARK  222  A    between atoms: _531  and  _532
REMARK  223  A    between atoms: _531  and  _534
REMARK  224  A    between atoms: _534  and  _535
REMARK  225  A    between atoms: _538  and  _540
REMARK  226  A    between atoms: _540  and  _541
REMARK  227  A    between atoms: _540  and  _543
REMARK  228  A    between atoms: _543  and  _544
REMARK  229  A    between atoms: _549  and  _551
REMARK  230  A    between atoms: _551  and  _552
REMARK  231  A    between atoms: _551  and  _554
REMARK  232  A    between atoms: _554  and  _555
REMARK  233  A    between atoms: _558  and  _560
REMARK  234  A    between atoms: _560  and  _561
REMARK  235  A    between atoms: _563  and  _565
REMARK  236  A    between atoms: _565  and  _566
REMARK  237  A    between atoms: _565  and  _568
REMARK  238  A    between atoms: _568  and  _569
REMARK                            x       y       z     vdW  Elec       q    Type
REMARK                         _______ _______ _______ _____ _____    ______ ____
ROOT
ATOM      1  O   HOH     1     -10.571  -2.026  10.205  0.00  0.00    +0.000 OA
ENDROOT
TORSDOF 0
REMARK  Name = ../refined-set-2016/3prs/3prs_pocket.pdb
REMARK  238 active torsions:
REMARK  status: ('A' for Active; 'I' for Inactive)
REMARK    1  A    between atoms: _1  and  _3
REMARK    2  A    between atoms: _3  and  _4
REMARK    3  A    between atoms: _3  and  _6
REMARK    4  A    between atoms: _6  and  _7
REMARK    5  A    between atoms: _10  and  _12
REMARK    6  A    between atoms: _12  and  _13
REMARK    7  A    between atoms: _12  and  _15
REMARK    8  A    between atoms: _15  and  _16
REMARK    9  A    between atoms: _19  and  _21
REMARK   10  A    between atoms: _21  and  _22
REMARK   11  A    between atoms: _21  and  _24
REMARK   12  A    between atoms: _24  and  _25
REMARK   13  A    between atoms: _28  and  _30
REMARK   14  A    between atoms: _30  and  _31
REMARK   15  A    between atoms: _30  and  _33
REMARK   16  A    between atoms: _33  and  _34
REMARK   17  A    between atoms: _37  and  _39
REMARK   18  A    between atoms: _39  and  _40
REMARK   19  A    between atoms: _39  and  _42
REMARK   20  A    between atoms: _42  and  _43
REMARK   21  A    between atoms: _46  and  _48
REMARK   22  A    between atoms: _48  and  _49
REMARK   23  A    between atoms: _52  and  _54
REMARK   24  A    between atoms: _54  and  _55
REMARK   25  A    between atoms: _54  and  _57
REMARK   26  A    between atoms: _57  and  _58
REMARK   27  A    between atoms: _63  and  _64
REMARK   28  A    between atoms: _66  and  _68
REMARK   29  A    between atoms: _68  and  _69
REMARK   30  A    between atoms: _68  and  _71
REMARK   31  A    between atoms: _71  and  _72
REMARK   32  A    between atoms: _75  and  _77
REMARK   33  A    between atoms: _77  and  _78
REMARK   34  A    between atoms: _77  and  _80
REMARK   35  A    between atoms: _80  and  _81
REMARK   36  A    between atoms: _87  and  _89
REMARK   37  A    between atoms: _89  and  _90
REMARK   38  A    between atoms: _89  and  _92
REMARK   39  A    between atoms: _92  and  _93
REMARK   40  A    between atoms: _96  and  _98
REMARK   41  A    between atoms: _98  and  _99
REMARK   42  A    between atoms: _98  and  _101
REMARK   43  A    between atoms: _101  and  _102
REMARK   44  A    between atoms: _105  and  _107
REMARK   45  A    between atoms: _107  and  _108
REMARK   46  A    between atoms: _110  and  _112
REMARK   47  A    between atoms: _112  and  _113
REMARK   48  A    between atoms: _112  and  _115
REMARK   49  A    between atoms: _115  and  _116
REMARK   50  A    between atoms: _118  and  _120
REMARK   51  A    between atoms: _120  and  _121
REMARK   52  A    between atoms: _120  and  _123
REMARK   53  A    between atoms: _123  and  _124
REMARK   54  A    between atoms: _126  and  _128
REMARK   55  A    between atoms: _128  and  _129
REMARK   56  A    between atoms: _128  and  _131
REMARK   57  A    between atoms: _131  and  _132
REMARK   58  A    between atoms: _135  and  _137
REMARK   59  A    between atoms: _137  and  _138
REMARK   60  A    between atoms: _137  and  _140
REMARK   61  A    between atoms: _140  and  _141
REMARK   62  A    between atoms: _151  and  _153
REMARK   63  A    between atoms: _153  and  _154
REMARK   64  A    between atoms: _153  and  _156
REMARK   65  A    between atoms: _156  and  _157
REMARK   66  A    between atoms: _159  and  _161
REMARK   67  A    between atoms: _161  and  _162
REMARK   68  A    between atoms: _161  and  _164
REMARK   69  A    between atoms: _164  and  _165
REMARK   70  A    between atoms: _168  and  _170
REMARK   71  A    between atoms: _170  and  _171
REMARK   72  A    between atoms: _170  and  _173
REMARK   73  A    between atoms: _173  and  _174
REMARK   74  A    between atoms: _176  and  _178
REMARK   75  A    between atoms: _178  and  _179
REMARK   76  A    between atoms: _178  and  _181
REMARK   77  A    between atoms: _181  and  _182
REMARK   78  A    between atoms: _187  and  _188
REMARK   79  A    between atoms: _190  and  _192
REMARK   80  A    between atoms: _192  and  _193
REMARK   81  A    between atoms: _195  and  _197
REMARK   82  A    between atoms: _197  and  _198
REMARK   83  A    between atoms: _197  and  _200
REMARK   84  A    between atoms: _200  and  _201
REMARK   85  A    between atoms: _204  and  _206
REMARK   86  A    between atoms: _206  and  _207
REMARK   87  A    between atoms: _209  and  _211
REMARK   88  A    between atoms: _211  and  _212
REMARK   89  A    between atoms: _211  and  _214
REMARK   90  A    between atoms: _214  and  _215
REMARK   91  A    between atoms: _217  and  _219
REMARK   92  A    between atoms: _219  and  _220
REMARK   93  A    between atoms: _219  and  _222
REMARK   94  A    between atoms: _222  and  _223
REMARK   95  A    between atoms: _225  and  _227
REMARK   96  A    between atoms: _227  and  _228
REMARK   97  A    between atoms: _227  and  _230
REMARK   98  A    between atoms: _230  and  _231
REMARK   99  A    between atoms: _233  and  _235
REMARK  100  A    between atoms: _235  and  _236
REMARK  101  A    between atoms: _235  and  _238
REMARK  102  A    between atoms: _238  and  _239
REMARK  103  A    between atoms: _245  and  _247
REMARK  104  A    between atoms: _247  and  _248
REMARK  105  A    between atoms: _247  and  _250
REMARK  106  A    between atoms: _250  and  _251
REMARK  107  A    between atoms: _251  and  _252
REMARK  108  A    between atoms: _255  and  _257
REMARK  109  A    between atoms: _257  and  _258
REMARK  110  A    between atoms: _257  and  _260
REMARK  111  A    between atoms: _260  and  _261
REMARK  112  A    between atoms: _264  and  _266
REMARK  113  A    between atoms: _266  and  _267
REMARK  114  A    between atoms: _266  and  _269
REMARK  115  A    between atoms: _269  and  _270
REMARK  116  A    between atoms: _272  and  _274
REMARK  117  A    between atoms: _274  and  _275
REMARK  118  A    between atoms: _274  and  _277
REMARK  119  A    between atoms: _277  and  _278
REMARK  120  A    between atoms: _281  and  _283
REMARK  121  A    between atoms: _283  and  _284
REMARK  122  A    between atoms: _283  and  _286
REMARK  123  A    between atoms: _286  and  _287
REMARK  124  A    between atoms: _290  and  _292
REMARK  125  A    between atoms: _292  and  _293
REMARK  126  A    between atoms: _295  and  _297
REMARK  127  A    between atoms: _297  and  _298
REMARK  128  A    between atoms: _297  and  _300
REMARK  129  A    between atoms: _300  and  _301
REMARK  130  A    between atoms: _304  and  _306
REMARK  131  A    between atoms: _306  and  _307
REMARK  132  A    between atoms: _306  and  _309
REMARK  133  A    between atoms: _309  and  _310
REMARK  134  A    between atoms: _313  and  _315
REMARK  135  A    between atoms: _315  and  _316
REMARK  136  A    between atoms: _315  and  _318
REMARK  137  A    between atoms: _318  and  _319
REMARK  138  A    between atoms: _322  and  _324
REMARK  139  A    between atoms: _324  and  _325
REMARK  140  A    between atoms: _328  and  _330
REMARK  141  A    between atoms: _330  and  _331
REMARK  142  A    between atoms: _330  and  _333
REMARK  143  A    between atoms: _333  and  _334
REMARK  144  A    between atoms: _340  and  _342
REMARK  145  A    between atoms: _342  and  _343
REMARK  146  A    between atoms: _342  and  _345
REMARK  147  A    between atoms: _345  and  _346
REMARK  148  A    between atoms: _349  and  _351
REMARK  149  A    between atoms: _351  and  _352
REMARK  150  A    between atoms: _351  and  _354
REMARK  151  A    between atoms: _354  and  _355
REMARK  152  A    between atoms: _358  and  _360
REMARK  153  A    between atoms: _360  and  _361
REMARK  154  A    between atoms: _360  and  _363
REMARK  155  A    between atoms: _363  and  _364
REMARK  156  A    between atoms: _369  and  _371
REMARK  157  A    between atoms: _371  and  _372
REMARK  158  A    between atoms: _371  and  _374
REMARK  159  A    between atoms: _374  and  _375
REMARK  160  A    between atoms: _378  and  _380
REMARK  161  A    between atoms: _380  and  _381
REMARK  162  A    between atoms: _380  and  _383
REMARK  163  A    between atoms: _383  and  _384
REMARK  164  A    between atoms: _384  and  _385
REMARK  165  A    between atoms: _390  and  _392
REMARK  166  A    between atoms: _392  and  _393
REMARK  167  A    between atoms: _392  and  _395
REMARK  168  A    between atoms: _395  and  _396
REMARK  169  A    between atoms: _396  and  _397
REMARK  170  A    between atoms: _402  and  _404
REMARK  171  A    between atoms: _404  and  _405
REMARK  172  A    between atoms: _407  and  _409
REMARK  173  A    between atoms: _409  and  _410
REMARK  174  A    between atoms: _409  and  _412
REMARK  175  A    between atoms: _412  and  _413
REMARK  176  A    between atoms: _419  and  _421
REMARK  177  A    between atoms: _421  and  _422
REMARK  178  A    between atoms: _421  and  _424
REMARK  179  A    between atoms: _424  and  _425
REMARK  180  A    between atoms: _428  and  _430
REMARK  181  A    between atoms: _430  and  _431
REMARK  182  A    between atoms: _434  and  _436
REMARK  183  A    between atoms: _436  and  _437
REMARK  184  A    between atoms: _436  and  _439
REMARK  185  A    between atoms: _439  and  _440
REMARK  186  A    between atoms: _443  and  _445
REMARK  187  A    between atoms: _445  and  _446
REMARK  188  A    between atoms: _445  and  _448
REMARK  189  A    between atoms: _448  and  _449
REMARK  190  A    between atoms: _452  and  _454
REMARK  191  A    between atoms: _454  and  _455
REMARK  192  A    between atoms: _457  and  _459
REMARK  193  A    between atoms: _459  and  _460
REMARK  194  A    between atoms: _459  and  _462
REMARK  195  A    between atoms: _462  and  _463
REMARK  196  A    between atoms: _466  and  _468
REMARK  197  A    between atoms: _468  and  _469
REMARK  198  A    between atoms: _468  and  _471
REMARK  199  A    between atoms: _471  and  _472
REMARK  200  A    between atoms: _475  and  _477
REMARK  201  A    between atoms: _477  and  _478
REMARK  202  A    between atoms: _477  and  _480
REMARK  203  A    between atoms: _480  and  _481
REMARK  204  A    between atoms: _484  and  _486
REMARK  205  A    between atoms: _486  and  _487
REMARK  206  A    between atoms: _486  and  _489
REMARK  207  A    between atoms: _489  and  _490
REMARK  208  A    between atoms: _495  and  _496
REMARK  209  A    between atoms: _498  and  _500
REMARK  210  A    between atoms: _500  and  _501
REMARK  211  A    between atoms: _500  and  _503
REMARK  212  A    between atoms: _503  and  _504
REMARK  213  A    between atoms: _510  and  _512
REMARK  214  A    between atoms: _512  and  _513
REMARK  215  A    between atoms: _515  and  _517
REMARK  216  A    between atoms: _517  and  _518
REMARK  217  A    between atoms: _517  and  _520
REMARK  218  A    between atoms: _520  and  _521
REMARK  219  A    between atoms: _524  and  _526
REMARK  220  A    between atoms: _526  and  _527
REMARK  221  A    between atoms: _529  and  _531
REMARK  222  A    between atoms: _531  and  _532
REMARK  223  A    between atoms: _531  and  _534
REMARK  224  A    between atoms: _534  and  _535
REMARK  225  A    between atoms: _538  and  _540
REMARK  226  A    between atoms: _540  and  _541
REMARK  227  A    between atoms: _540  and  _543
REMARK  228  A    between atoms: _543  and  _544
REMARK  229  A    between atoms: _549  and  _551
REMARK  230  A    between atoms: _551  and  _552
REMARK  231  A    between atoms: _551  and  _554
REMARK  232  A    between atoms: _554  and  _555
REMARK  233  A    between atoms: _558  and  _560
REMARK  234  A    between atoms: _560  and  _561
REMARK  235  A    between atoms: _563  and  _565
REMARK  236  A    between atoms: _565  and  _566
REMARK  237  A    between atoms: _565  and  _568
REMARK  238  A    between atoms: _568  and  _569
REMARK                            x       y       z     vdW  Elec       q    Type
REMARK                         _______ _______ _______ _____ _____    ______ ____
ROOT
ATOM      1  O   HOH     1       2.469   8.695  23.808  0.00  0.00    +0.000 OA
ENDROOT
TORSDOF 0
REMARK  Name = ../refined-set-2016/3prs/3prs_pocket.pdb
REMARK  238 active torsions:
REMARK  status: ('A' for Active; 'I' for Inactive)
REMARK    1  A    between atoms: _1  and  _3
REMARK    2  A    between atoms: _3  and  _4
REMARK    3  A    between atoms: _3  and  _6
REMARK    4  A    between atoms: _6  and  _7
REMARK    5  A    between atoms: _10  and  _12
REMARK    6  A    between atoms: _12  and  _13
REMARK    7  A    between atoms: _12  and  _15
REMARK    8  A    between atoms: _15  and  _16
REMARK    9  A    between atoms: _19  and  _21
REMARK   10  A    between atoms: _21  and  _22
REMARK   11  A    between atoms: _21  and  _24
REMARK   12  A    between atoms: _24  and  _25
REMARK   13  A    between atoms: _28  and  _30
REMARK   14  A    between atoms: _30  and  _31
REMARK   15  A    between atoms: _30  and  _33
REMARK   16  A    between atoms: _33  and  _34
REMARK   17  A    between atoms: _37  and  _39
REMARK   18  A    between atoms: _39  and  _40
REMARK   19  A    between atoms: _39  and  _42
REMARK   20  A    between atoms: _42  and  _43
REMARK   21  A    between atoms: _46  and  _48
REMARK   22  A    between atoms: _48  and  _49
REMARK   23  A    between atoms: _52  and  _54
REMARK   24  A    between atoms: _54  and  _55
REMARK   25  A    between atoms: _54  and  _57
REMARK   26  A    between atoms: _57  and  _58
REMARK   27  A    between atoms: _63  and  _64
REMARK   28  A    between atoms: _66  and  _68
REMARK   29  A    between atoms: _68  and  _69
REMARK   30  A    between atoms: _68  and  _71
REMARK   31  A    between atoms: _71  and  _72
REMARK   32  A    between atoms: _75  and  _77
REMARK   33  A    between atoms: _77  and  _78
REMARK   34  A    between atoms: _77  and  _80
REMARK   35  A    between atoms: _80  and  _81
REMARK   36  A    between atoms: _87  and  _89
REMARK   37  A    between atoms: _89  and  _90
REMARK   38  A    between atoms: _89  and  _92
REMARK   39  A    between atoms: _92  and  _93
REMARK   40  A    between atoms: _96  and  _98
REMARK   41  A    between atoms: _98  and  _99
REMARK   42  A    between atoms: _98  and  _101
REMARK   43  A    between atoms: _101  and  _102
REMARK   44  A    between atoms: _105  and  _107
REMARK   45  A    between atoms: _107  and  _108
REMARK   46  A    between atoms: _110  and  _112
REMARK   47  A    between atoms: _112  and  _113
REMARK   48  A    between atoms: _112  and  _115
REMARK   49  A    between atoms: _115  and  _116
REMARK   50  A    between atoms: _118  and  _120
REMARK   51  A    between atoms: _120  and  _121
REMARK   52  A    between atoms: _120  and  _123
REMARK   53  A    between atoms: _123  and  _124
REMARK   54  A    between atoms: _126  and  _128
REMARK   55  A    between atoms: _128  and  _129
REMARK   56  A    between atoms: _128  and  _131
REMARK   57  A    between atoms: _131  and  _132
REMARK   58  A    between atoms: _135  and  _137
REMARK   59  A    between atoms: _137  and  _138
REMARK   60  A    between atoms: _137  and  _140
REMARK   61  A    between atoms: _140  and  _141
REMARK   62  A    between atoms: _151  and  _153
REMARK   63  A    between atoms: _153  and  _154
REMARK   64  A    between atoms: _153  and  _156
REMARK   65  A    between atoms: _156  and  _157
REMARK   66  A    between atoms: _159  and  _161
REMARK   67  A    between atoms: _161  and  _162
REMARK   68  A    between atoms: _161  and  _164
REMARK   69  A    between atoms: _164  and  _165
REMARK   70  A    between atoms: _168  and  _170
REMARK   71  A    between atoms: _170  and  _171
REMARK   72  A    between atoms: _170  and  _173
REMARK   73  A    between atoms: _173  and  _174
REMARK   74  A    between atoms: _176  and  _178
REMARK   75  A    between atoms: _178  and  _179
REMARK   76  A    between atoms: _178  and  _181
REMARK   77  A    between atoms: _181  and  _182
REMARK   78  A    between atoms: _187  and  _188
REMARK   79  A    between atoms: _190  and  _192
REMARK   80  A    between atoms: _192  and  _193
REMARK   81  A    between atoms: _195  and  _197
REMARK   82  A    between atoms: _197  and  _198
REMARK   83  A    between atoms: _197  and  _200
REMARK   84  A    between atoms: _200  and  _201
REMARK   85  A    between atoms: _204  and  _206
REMARK   86  A    between atoms: _206  and  _207
REMARK   87  A    between atoms: _209  and  _211
REMARK   88  A    between atoms: _211  and  _212
REMARK   89  A    between atoms: _211  and  _214
REMARK   90  A    between atoms: _214  and  _215
REMARK   91  A    between atoms: _217  and  _219
REMARK   92  A    between atoms: _219  and  _220
REMARK   93  A    between atoms: _219  and  _222
REMARK   94  A    between atoms: _222  and  _223
REMARK   95  A    between atoms: _225  and  _227
REMARK   96  A    between atoms: _227  and  _228
REMARK   97  A    between atoms: _227  and  _230
REMARK   98  A    between atoms: _230  and  _231
REMARK   99  A    between atoms: _233  and  _235
REMARK  100  A    between atoms: _235  and  _236
REMARK  101  A    between atoms: _235  and  _238
REMARK  102  A    between atoms: _238  and  _239
REMARK  103  A    between atoms: _245  and  _247
REMARK  104  A    between atoms: _247  and  _248
REMARK  105  A    between atoms: _247  and  _250
REMARK  106  A    between atoms: _250  and  _251
REMARK  107  A    between atoms: _251  and  _252
REMARK  108  A    between atoms: _255  and  _257
REMARK  109  A    between atoms: _257  and  _258
REMARK  110  A    between atoms: _257  and  _260
REMARK  111  A    between atoms: _260  and  _261
REMARK  112  A    between atoms: _264  and  _266
REMARK  113  A    between atoms: _266  and  _267
REMARK  114  A    between atoms: _266  and  _269
REMARK  115  A    between atoms: _269  and  _270
REMARK  116  A    between atoms: _272  and  _274
REMARK  117  A    between atoms: _274  and  _275
REMARK  118  A    between atoms: _274  and  _277
REMARK  119  A    between atoms: _277  and  _278
REMARK  120  A    between atoms: _281  and  _283
REMARK  121  A    between atoms: _283  and  _284
REMARK  122  A    between atoms: _283  and  _286
REMARK  123  A    between atoms: _286  and  _287
REMARK  124  A    between atoms: _290  and  _292
REMARK  125  A    between atoms: _292  and  _293
REMARK  126  A    between atoms: _295  and  _297
REMARK  127  A    between atoms: _297  and  _298
REMARK  128  A    between atoms: _297  and  _300
REMARK  129  A    between atoms: _300  and  _301
REMARK  130  A    between atoms: _304  and  _306
REMARK  131  A    between atoms: _306  and  _307
REMARK  132  A    between atoms: _306  and  _309
REMARK  133  A    between atoms: _309  and  _310
REMARK  134  A    between atoms: _313  and  _315
REMARK  135  A    between atoms: _315  and  _316
REMARK  136  A    between atoms: _315  and  _318
REMARK  137  A    between atoms: _318  and  _319
REMARK  138  A    between atoms: _322  and  _324
REMARK  139  A    between atoms: _324  and  _325
REMARK  140  A    between atoms: _328  and  _330
REMARK  141  A    between atoms: _330  and  _331
REMARK  142  A    between atoms: _330  and  _333
REMARK  143  A    between atoms: _333  and  _334
REMARK  144  A    between atoms: _340  and  _342
REMARK  145  A    between atoms: _342  and  _343
REMARK  146  A    between atoms: _342  and  _345
REMARK  147  A    between atoms: _345  and  _346
REMARK  148  A    between atoms: _349  and  _351
REMARK  149  A    between atoms: _351  and  _352
REMARK  150  A    between atoms: _351  and  _354
REMARK  151  A    between atoms: _354  and  _355
REMARK  152  A    between atoms: _358  and  _360
REMARK  153  A    between atoms: _360  and  _361
REMARK  154  A    between atoms: _360  and  _363
REMARK  155  A    between atoms: _363  and  _364
REMARK  156  A    between atoms: _369  and  _371
REMARK  157  A    between atoms: _371  and  _372
REMARK  158  A    between atoms: _371  and  _374
REMARK  159  A    between atoms: _374  and  _375
REMARK  160  A    between atoms: _378  and  _380
REMARK  161  A    between atoms: _380  and  _381
REMARK  162  A    between atoms: _380  and  _383
REMARK  163  A    between atoms: _383  and  _384
REMARK  164  A    between atoms: _384  and  _385
REMARK  165  A    between atoms: _390  and  _392
REMARK  166  A    between atoms: _392  and  _393
REMARK  167  A    between atoms: _392  and  _395
REMARK  168  A    between atoms: _395  and  _396
REMARK  169  A    between atoms: _396  and  _397
REMARK  170  A    between atoms: _402  and  _404
REMARK  171  A    between atoms: _404  and  _405
REMARK  172  A    between atoms: _407  and  _409
REMARK  173  A    between atoms: _409  and  _410
REMARK  174  A    between atoms: _409  and  _412
REMARK  175  A    between atoms: _412  and  _413
REMARK  176  A    between atoms: _419  and  _421
REMARK  177  A    between atoms: _421  and  _422
REMARK  178  A    between atoms: _421  and  _424
REMARK  179  A    between atoms: _424  and  _425
REMARK  180  A    between atoms: _428  and  _430
REMARK  181  A    between atoms: _430  and  _431
REMARK  182  A    between atoms: _434  and  _436
REMARK  183  A    between atoms: _436  and  _437
REMARK  184  A    between atoms: _436  and  _439
REMARK  185  A    between atoms: _439  and  _440
REMARK  186  A    between atoms: _443  and  _445
REMARK  187  A    between atoms: _445  and  _446
REMARK  188  A    between atoms: _445  and  _448
REMARK  189  A    between atoms: _448  and  _449
REMARK  190  A    between atoms: _452  and  _454
REMARK  191  A    between atoms: _454  and  _455
REMARK  192  A    between atoms: _457  and  _459
REMARK  193  A    between atoms: _459  and  _460
REMARK  194  A    between atoms: _459  and  _462
REMARK  195  A    between atoms: _462  and  _463
REMARK  196  A    between atoms: _466  and  _468
REMARK  197  A    between atoms: _468  and  _469
REMARK  198  A    between atoms: _468  and  _471
REMARK  199  A    between atoms: _471  and  _472
REMARK  200  A    between atoms: _475  and  _477
REMARK  201  A    between atoms: _477  and  _478
REMARK  202  A    between atoms: _477  and  _480
REMARK  203  A    between atoms: _480  and  _481
REMARK  204  A    between atoms: _484  and  _486
REMARK  205  A    between atoms: _486  and  _487
REMARK  206  A    between atoms: _486  and  _489
REMARK  207  A    between atoms: _489  and  _490
REMARK  208  A    between atoms: _495  and  _496
REMARK  209  A    between atoms: _498  and  _500
REMARK  210  A    between atoms: _500  and  _501
REMARK  211  A    between atoms: _500  and  _503
REMARK  212  A    between atoms: _503  and  _504
REMARK  213  A    between atoms: _510  and  _512
REMARK  214  A    between atoms: _512  and  _513
REMARK  215  A    between atoms: _515  and  _517
REMARK  216  A    between atoms: _517  and  _518
REMARK  217  A    between atoms: _517  and  _520
REMARK  218  A    between atoms: _520  and  _521
REMARK  219  A    between atoms: _524  and  _526
REMARK  220  A    between atoms: _526  and  _527
REMARK  221  A    between atoms: _529  and  _531
REMARK  222  A    between atoms: _531  and  _532
REMARK  223  A    between atoms: _531  and  _534
REMARK  224  A    between atoms: _534  and  _535
REMARK  225  A    between atoms: _538  and  _540
REMARK  226  A    between atoms: _540  and  _541
REMARK  227  A    between atoms: _540  and  _543
REMARK  228  A    between atoms: _543  and  _544
REMARK  229  A    between atoms: _549  and  _551
REMARK  230  A    between atoms: _551  and  _552
REMARK  231  A    between atoms: _551  and  _554
REMARK  232  A    between atoms: _554  and  _555
REMARK  233  A    between atoms: _558  and  _560
REMARK  234  A    between atoms: _560  and  _561
REMARK  235  A    between atoms: _563  and  _565
REMARK  236  A    between atoms: _565  and  _566
REMARK  237  A    between atoms: _565  and  _568
REMARK  238  A    between atoms: _568  and  _569
REMARK                            x       y       z     vdW  Elec       q    Type
REMARK                         _______ _______ _______ _____ _____    ______ ____
ROOT
ATOM      1  O   HOH     1      -8.884   3.612   9.900  0.00  0.00    +0.000 OA
ENDROOT
TORSDOF 0
REMARK  Name = ../refined-set-2016/3prs/3prs_pocket.pdb
REMARK  238 active torsions:
REMARK  status: ('A' for Active; 'I' for Inactive)
REMARK    1  A    between atoms: _1  and  _3
REMARK    2  A    between atoms: _3  and  _4
REMARK    3  A    between atoms: _3  and  _6
REMARK    4  A    between atoms: _6  and  _7
REMARK    5  A    between atoms: _10  and  _12
REMARK    6  A    between atoms: _12  and  _13
REMARK    7  A    between atoms: _12  and  _15
REMARK    8  A    between atoms: _15  and  _16
REMARK    9  A    between atoms: _19  and  _21
REMARK   10  A    between atoms: _21  and  _22
REMARK   11  A    between atoms: _21  and  _24
REMARK   12  A    between atoms: _24  and  _25
REMARK   13  A    between atoms: _28  and  _30
REMARK   14  A    between atoms: _30  and  _31
REMARK   15  A    between atoms: _30  and  _33
REMARK   16  A    between atoms: _33  and  _34
REMARK   17  A    between atoms: _37  and  _39
REMARK   18  A    between atoms: _39  and  _40
REMARK   19  A    between atoms: _39  and  _42
REMARK   20  A    between atoms: _42  and  _43
REMARK   21  A    between atoms: _46  and  _48
REMARK   22  A    between atoms: _48  and  _49
REMARK   23  A    between atoms: _52  and  _54
REMARK   24  A    between atoms: _54  and  _55
REMARK   25  A    between atoms: _54  and  _57
REMARK   26  A    between atoms: _57  and  _58
REMARK   27  A    between atoms: _63  and  _64
REMARK   28  A    between atoms: _66  and  _68
REMARK   29  A    between atoms: _68  and  _69
REMARK   30  A    between atoms: _68  and  _71
REMARK   31  A    between atoms: _71  and  _72
REMARK   32  A    between atoms: _75  and  _77
REMARK   33  A    between atoms: _77  and  _78
REMARK   34  A    between atoms: _77  and  _80
REMARK   35  A    between atoms: _80  and  _81
REMARK   36  A    between atoms: _87  and  _89
REMARK   37  A    between atoms: _89  and  _90
REMARK   38  A    between atoms: _89  and  _92
REMARK   39  A    between atoms: _92  and  _93
REMARK   40  A    between atoms: _96  and  _98
REMARK   41  A    between atoms: _98  and  _99
REMARK   42  A    between atoms: _98  and  _101
REMARK   43  A    between atoms: _101  and  _102
REMARK   44  A    between atoms: _105  and  _107
REMARK   45  A    between atoms: _107  and  _108
REMARK   46  A    between atoms: _110  and  _112
REMARK   47  A    between atoms: _112  and  _113
REMARK   48  A    between atoms: _112  and  _115
REMARK   49  A    between atoms: _115  and  _116
REMARK   50  A    between atoms: _118  and  _120
REMARK   51  A    between atoms: _120  and  _121
REMARK   52  A    between atoms: _120  and  _123
REMARK   53  A    between atoms: _123  and  _124
REMARK   54  A    between atoms: _126  and  _128
REMARK   55  A    between atoms: _128  and  _129
REMARK   56  A    between atoms: _128  and  _131
REMARK   57  A    between atoms: _131  and  _132
REMARK   58  A    between atoms: _135  and  _137
REMARK   59  A    between atoms: _137  and  _138
REMARK   60  A    between atoms: _137  and  _140
REMARK   61  A    between atoms: _140  and  _141
REMARK   62  A    between atoms: _151  and  _153
REMARK   63  A    between atoms: _153  and  _154
REMARK   64  A    between atoms: _153  and  _156
REMARK   65  A    between atoms: _156  and  _157
REMARK   66  A    between atoms: _159  and  _161
REMARK   67  A    between atoms: _161  and  _162
REMARK   68  A    between atoms: _161  and  _164
REMARK   69  A    between atoms: _164  and  _165
REMARK   70  A    between atoms: _168  and  _170
REMARK   71  A    between atoms: _170  and  _171
REMARK   72  A    between atoms: _170  and  _173
REMARK   73  A    between atoms: _173  and  _174
REMARK   74  A    between atoms: _176  and  _178
REMARK   75  A    between atoms: _178  and  _179
REMARK   76  A    between atoms: _178  and  _181
REMARK   77  A    between atoms: _181  and  _182
REMARK   78  A    between atoms: _187  and  _188
REMARK   79  A    between atoms: _190  and  _192
REMARK   80  A    between atoms: _192  and  _193
REMARK   81  A    between atoms: _195  and  _197
REMARK   82  A    between atoms: _197  and  _198
REMARK   83  A    between atoms: _197  and  _200
REMARK   84  A    between atoms: _200  and  _201
REMARK   85  A    between atoms: _204  and  _206
REMARK   86  A    between atoms: _206  and  _207
REMARK   87  A    between atoms: _209  and  _211
REMARK   88  A    between atoms: _211  and  _212
REMARK   89  A    between atoms: _211  and  _214
REMARK   90  A    between atoms: _214  and  _215
REMARK   91  A    between atoms: _217  and  _219
REMARK   92  A    between atoms: _219  and  _220
REMARK   93  A    between atoms: _219  and  _222
REMARK   94  A    between atoms: _222  and  _223
REMARK   95  A    between atoms: _225  and  _227
REMARK   96  A    between atoms: _227  and  _228
REMARK   97  A    between atoms: _227  and  _230
REMARK   98  A    between atoms: _230  and  _231
REMARK   99  A    between atoms: _233  and  _235
REMARK  100  A    between atoms: _235  and  _236
REMARK  101  A    between atoms: _235  and  _238
REMARK  102  A    between atoms: _238  and  _239
REMARK  103  A    between atoms: _245  and  _247
REMARK  104  A    between atoms: _247  and  _248
REMARK  105  A    between atoms: _247  and  _250
REMARK  106  A    between atoms: _250  and  _251
REMARK  107  A    between atoms: _251  and  _252
REMARK  108  A    between atoms: _255  and  _257
REMARK  109  A    between atoms: _257  and  _258
REMARK  110  A    between atoms: _257  and  _260
REMARK  111  A    between atoms: _260  and  _261
REMARK  112  A    between atoms: _264  and  _266
REMARK  113  A    between atoms: _266  and  _267
REMARK  114  A    between atoms: _266  and  _269
REMARK  115  A    between atoms: _269  and  _270
REMARK  116  A    between atoms: _272  and  _274
REMARK  117  A    between atoms: _274  and  _275
REMARK  118  A    between atoms: _274  and  _277
REMARK  119  A    between atoms: _277  and  _278
REMARK  120  A    between atoms: _281  and  _283
REMARK  121  A    between atoms: _283  and  _284
REMARK  122  A    between atoms: _283  and  _286
REMARK  123  A    between atoms: _286  and  _287
REMARK  124  A    between atoms: _290  and  _292
REMARK  125  A    between atoms: _292  and  _293
REMARK  126  A    between atoms: _295  and  _297
REMARK  127  A    between atoms: _297  and  _298
REMARK  128  A    between atoms: _297  and  _300
REMARK  129  A    between atoms: _300  and  _301
REMARK  130  A    between atoms: _304  and  _306
REMARK  131  A    between atoms: _306  and  _307
REMARK  132  A    between atoms: _306  and  _309
REMARK  133  A    between atoms: _309  and  _310
REMARK  134  A    between atoms: _313  and  _315
REMARK  135  A    between atoms: _315  and  _316
REMARK  136  A    between atoms: _315  and  _318
REMARK  137  A    between atoms: _318  and  _319
REMARK  138  A    between atoms: _322  and  _324
REMARK  139  A    between atoms: _324  and  _325
REMARK  140  A    between atoms: _328  and  _330
REMARK  141  A    between atoms: _330  and  _331
REMARK  142  A    between atoms: _330  and  _333
REMARK  143  A    between atoms: _333  and  _334
REMARK  144  A    between atoms: _340  and  _342
REMARK  145  A    between atoms: _342  and  _343
REMARK  146  A    between atoms: _342  and  _345
REMARK  147  A    between atoms: _345  and  _346
REMARK  148  A    between atoms: _349  and  _351
REMARK  149  A    between atoms: _351  and  _352
REMARK  150  A    between atoms: _351  and  _354
REMARK  151  A    between atoms: _354  and  _355
REMARK  152  A    between atoms: _358  and  _360
REMARK  153  A    between atoms: _360  and  _361
REMARK  154  A    between atoms: _360  and  _363
REMARK  155  A    between atoms: _363  and  _364
REMARK  156  A    between atoms: _369  and  _371
REMARK  157  A    between atoms: _371  and  _372
REMARK  158  A    between atoms: _371  and  _374
REMARK  159  A    between atoms: _374  and  _375
REMARK  160  A    between atoms: _378  and  _380
REMARK  161  A    between atoms: _380  and  _381
REMARK  162  A    between atoms: _380  and  _383
REMARK  163  A    between atoms: _383  and  _384
REMARK  164  A    between atoms: _384  and  _385
REMARK  165  A    between atoms: _390  and  _392
REMARK  166  A    between atoms: _392  and  _393
REMARK  167  A    between atoms: _392  and  _395
REMARK  168  A    between atoms: _395  and  _396
REMARK  169  A    between atoms: _396  and  _397
REMARK  170  A    between atoms: _402  and  _404
REMARK  171  A    between atoms: _404  and  _405
REMARK  172  A    between atoms: _407  and  _409
REMARK  173  A    between atoms: _409  and  _410
REMARK  174  A    between atoms: _409  and  _412
REMARK  175  A    between atoms: _412  and  _413
REMARK  176  A    between atoms: _419  and  _421
REMARK  177  A    between atoms: _421  and  _422
REMARK  178  A    between atoms: _421  and  _424
REMARK  179  A    between atoms: _424  and  _425
REMARK  180  A    between atoms: _428  and  _430
REMARK  181  A    between atoms: _430  and  _431
REMARK  182  A    between atoms: _434  and  _436
REMARK  183  A    between atoms: _436  and  _437
REMARK  184  A    between atoms: _436  and  _439
REMARK  185  A    between atoms: _439  and  _440
REMARK  186  A    between atoms: _443  and  _445
REMARK  187  A    between atoms: _445  and  _446
REMARK  188  A    between atoms: _445  and  _448
REMARK  189  A    between atoms: _448  and  _449
REMARK  190  A    between atoms: _452  and  _454
REMARK  191  A    between atoms: _454  and  _455
REMARK  192  A    between atoms: _457  and  _459
REMARK  193  A    between atoms: _459  and  _460
REMARK  194  A    between atoms: _459  and  _462
REMARK  195  A    between atoms: _462  and  _463
REMARK  196  A    between atoms: _466  and  _468
REMARK  197  A    between atoms: _468  and  _469
REMARK  198  A    between atoms: _468  and  _471
REMARK  199  A    between atoms: _471  and  _472
REMARK  200  A    between atoms: _475  and  _477
REMARK  201  A    between atoms: _477  and  _478
REMARK  202  A    between atoms: _477  and  _480
REMARK  203  A    between atoms: _480  and  _481
REMARK  204  A    between atoms: _484  and  _486
REMARK  205  A    between atoms: _486  and  _487
REMARK  206  A    between atoms: _486  and  _489
REMARK  207  A    between atoms: _489  and  _490
REMARK  208  A    between atoms: _495  and  _496
REMARK  209  A    between atoms: _498  and  _500
REMARK  210  A    between atoms: _500  and  _501
REMARK  211  A    between atoms: _500  and  _503
REMARK  212  A    between atoms: _503  and  _504
REMARK  213  A    between atoms: _510  and  _512
REMARK  214  A    between atoms: _512  and  _513
REMARK  215  A    between atoms: _515  and  _517
REMARK  216  A    between atoms: _517  and  _518
REMARK  217  A    between atoms: _517  and  _520
REMARK  218  A    between atoms: _520  and  _521
REMARK  219  A    between atoms: _524  and  _526
REMARK  220  A    between atoms: _526  and  _527
REMARK  221  A    between atoms: _529  and  _531
REMARK  222  A    between atoms: _531  and  _532
REMARK  223  A    between atoms: _531  and  _534
REMARK  224  A    between atoms: _534  and  _535
REMARK  225  A    between atoms: _538  and  _540
REMARK  226  A    between atoms: _540  and  _541
REMARK  227  A    between atoms: _540  and  _543
REMARK  228  A    between atoms: _543  and  _544
REMARK  229  A    between atoms: _549  and  _551
REMARK  230  A    between atoms: _551  and  _552
REMARK  231  A    between atoms: _551  and  _554
REMARK  232  A    between atoms: _554  and  _555
REMARK  233  A    between atoms: _558  and  _560
REMARK  234  A    between atoms: _560  and  _561
REMARK  235  A    between atoms: _563  and  _565
REMARK  236  A    between atoms: _565  and  _566
REMARK  237  A    between atoms: _565  and  _568
REMARK  238  A    between atoms: _568  and  _569
REMARK                            x       y       z     vdW  Elec       q    Type
REMARK                         _______ _______ _______ _____ _____    ______ ____
ROOT
ATOM      1  O   HOH     1     -11.065   2.906   2.333  0.00  0.00    +0.000 OA
ENDROOT
TORSDOF 0
REMARK  Name = ../refined-set-2016/3prs/3prs_pocket.pdb
REMARK  238 active torsions:
REMARK  status: ('A' for Active; 'I' for Inactive)
REMARK    1  A    between atoms: _1  and  _3
REMARK    2  A    between atoms: _3  and  _4
REMARK    3  A    between atoms: _3  and  _6
REMARK    4  A    between atoms: _6  and  _7
REMARK    5  A    between atoms: _10  and  _12
REMARK    6  A    between atoms: _12  and  _13
REMARK    7  A    between atoms: _12  and  _15
REMARK    8  A    between atoms: _15  and  _16
REMARK    9  A    between atoms: _19  and  _21
REMARK   10  A    between atoms: _21  and  _22
REMARK   11  A    between atoms: _21  and  _24
REMARK   12  A    between atoms: _24  and  _25
REMARK   13  A    between atoms: _28  and  _30
REMARK   14  A    between atoms: _30  and  _31
REMARK   15  A    between atoms: _30  and  _33
REMARK   16  A    between atoms: _33  and  _34
REMARK   17  A    between atoms: _37  and  _39
REMARK   18  A    between atoms: _39  and  _40
REMARK   19  A    between atoms: _39  and  _42
REMARK   20  A    between atoms: _42  and  _43
REMARK   21  A    between atoms: _46  and  _48
REMARK   22  A    between atoms: _48  and  _49
REMARK   23  A    between atoms: _52  and  _54
REMARK   24  A    between atoms: _54  and  _55
REMARK   25  A    between atoms: _54  and  _57
REMARK   26  A    between atoms: _57  and  _58
REMARK   27  A    between atoms: _63  and  _64
REMARK   28  A    between atoms: _66  and  _68
REMARK   29  A    between atoms: _68  and  _69
REMARK   30  A    between atoms: _68  and  _71
REMARK   31  A    between atoms: _71  and  _72
REMARK   32  A    between atoms: _75  and  _77
REMARK   33  A    between atoms: _77  and  _78
REMARK   34  A    between atoms: _77  and  _80
REMARK   35  A    between atoms: _80  and  _81
REMARK   36  A    between atoms: _87  and  _89
REMARK   37  A    between atoms: _89  and  _90
REMARK   38  A    between atoms: _89  and  _92
REMARK   39  A    between atoms: _92  and  _93
REMARK   40  A    between atoms: _96  and  _98
REMARK   41  A    between atoms: _98  and  _99
REMARK   42  A    between atoms: _98  and  _101
REMARK   43  A    between atoms: _101  and  _102
REMARK   44  A    between atoms: _105  and  _107
REMARK   45  A    between atoms: _107  and  _108
REMARK   46  A    between atoms: _110  and  _112
REMARK   47  A    between atoms: _112  and  _113
REMARK   48  A    between atoms: _112  and  _115
REMARK   49  A    between atoms: _115  and  _116
REMARK   50  A    between atoms: _118  and  _120
REMARK   51  A    between atoms: _120  and  _121
REMARK   52  A    between atoms: _120  and  _123
REMARK   53  A    between atoms: _123  and  _124
REMARK   54  A    between atoms: _126  and  _128
REMARK   55  A    between atoms: _128  and  _129
REMARK   56  A    between atoms: _128  and  _131
REMARK   57  A    between atoms: _131  and  _132
REMARK   58  A    between atoms: _135  and  _137
REMARK   59  A    between atoms: _137  and  _138
REMARK   60  A    between atoms: _137  and  _140
REMARK   61  A    between atoms: _140  and  _141
REMARK   62  A    between atoms: _151  and  _153
REMARK   63  A    between atoms: _153  and  _154
REMARK   64  A    between atoms: _153  and  _156
REMARK   65  A    between atoms: _156  and  _157
REMARK   66  A    between atoms: _159  and  _161
REMARK   67  A    between atoms: _161  and  _162
REMARK   68  A    between atoms: _161  and  _164
REMARK   69  A    between atoms: _164  and  _165
REMARK   70  A    between atoms: _168  and  _170
REMARK   71  A    between atoms: _170  and  _171
REMARK   72  A    between atoms: _170  and  _173
REMARK   73  A    between atoms: _173  and  _174
REMARK   74  A    between atoms: _176  and  _178
REMARK   75  A    between atoms: _178  and  _179
REMARK   76  A    between atoms: _178  and  _181
REMARK   77  A    between atoms: _181  and  _182
REMARK   78  A    between atoms: _187  and  _188
REMARK   79  A    between atoms: _190  and  _192
REMARK   80  A    between atoms: _192  and  _193
REMARK   81  A    between atoms: _195  and  _197
REMARK   82  A    between atoms: _197  and  _198
REMARK   83  A    between atoms: _197  and  _200
REMARK   84  A    between atoms: _200  and  _201
REMARK   85  A    between atoms: _204  and  _206
REMARK   86  A    between atoms: _206  and  _207
REMARK   87  A    between atoms: _209  and  _211
REMARK   88  A    between atoms: _211  and  _212
REMARK   89  A    between atoms: _211  and  _214
REMARK   90  A    between atoms: _214  and  _215
REMARK   91  A    between atoms: _217  and  _219
REMARK   92  A    between atoms: _219  and  _220
REMARK   93  A    between atoms: _219  and  _222
REMARK   94  A    between atoms: _222  and  _223
REMARK   95  A    between atoms: _225  and  _227
REMARK   96  A    between atoms: _227  and  _228
REMARK   97  A    between atoms: _227  and  _230
REMARK   98  A    between atoms: _230  and  _231
REMARK   99  A    between atoms: _233  and  _235
REMARK  100  A    between atoms: _235  and  _236
REMARK  101  A    between atoms: _235  and  _238
REMARK  102  A    between atoms: _238  and  _239
REMARK  103  A    between atoms: _245  and  _247
REMARK  104  A    between atoms: _247  and  _248
REMARK  105  A    between atoms: _247  and  _250
REMARK  106  A    between atoms: _250  and  _251
REMARK  107  A    between atoms: _251  and  _252
REMARK  108  A    between atoms: _255  and  _257
REMARK  109  A    between atoms: _257  and  _258
REMARK  110  A    between atoms: _257  and  _260
REMARK  111  A    between atoms: _260  and  _261
REMARK  112  A    between atoms: _264  and  _266
REMARK  113  A    between atoms: _266  and  _267
REMARK  114  A    between atoms: _266  and  _269
REMARK  115  A    between atoms: _269  and  _270
REMARK  116  A    between atoms: _272  and  _274
REMARK  117  A    between atoms: _274  and  _275
REMARK  118  A    between atoms: _274  and  _277
REMARK  119  A    between atoms: _277  and  _278
REMARK  120  A    between atoms: _281  and  _283
REMARK  121  A    between atoms: _283  and  _284
REMARK  122  A    between atoms: _283  and  _286
REMARK  123  A    between atoms: _286  and  _287
REMARK  124  A    between atoms: _290  and  _292
REMARK  125  A    between atoms: _292  and  _293
REMARK  126  A    between atoms: _295  and  _297
REMARK  127  A    between atoms: _297  and  _298
REMARK  128  A    between atoms: _297  and  _300
REMARK  129  A    between atoms: _300  and  _301
REMARK  130  A    between atoms: _304  and  _306
REMARK  131  A    between atoms: _306  and  _307
REMARK  132  A    between atoms: _306  and  _309
REMARK  133  A    between atoms: _309  and  _310
REMARK  134  A    between atoms: _313  and  _315
REMARK  135  A    between atoms: _315  and  _316
REMARK  136  A    between atoms: _315  and  _318
REMARK  137  A    between atoms: _318  and  _319
REMARK  138  A    between atoms: _322  and  _324
REMARK  139  A    between atoms: _324  and  _325
REMARK  140  A    between atoms: _328  and  _330
REMARK  141  A    between atoms: _330  and  _331
REMARK  142  A    between atoms: _330  and  _333
REMARK  143  A    between atoms: _333  and  _334
REMARK  144  A    between atoms: _340  and  _342
REMARK  145  A    between atoms: _342  and  _343
REMARK  146  A    between atoms: _342  and  _345
REMARK  147  A    between atoms: _345  and  _346
REMARK  148  A    between atoms: _349  and  _351
REMARK  149  A    between atoms: _351  and  _352
REMARK  150  A    between atoms: _351  and  _354
REMARK  151  A    between atoms: _354  and  _355
REMARK  152  A    between atoms: _358  and  _360
REMARK  153  A    between atoms: _360  and  _361
REMARK  154  A    between atoms: _360  and  _363
REMARK  155  A    between atoms: _363  and  _364
REMARK  156  A    between atoms: _369  and  _371
REMARK  157  A    between atoms: _371  and  _372
REMARK  158  A    between atoms: _371  and  _374
REMARK  159  A    between atoms: _374  and  _375
REMARK  160  A    between atoms: _378  and  _380
REMARK  161  A    between atoms: _380  and  _381
REMARK  162  A    between atoms: _380  and  _383
REMARK  163  A    between atoms: _383  and  _384
REMARK  164  A    between atoms: _384  and  _385
REMARK  165  A    between atoms: _390  and  _392
REMARK  166  A    between atoms: _392  and  _393
REMARK  167  A    between atoms: _392  and  _395
REMARK  168  A    between atoms: _395  and  _396
REMARK  169  A    between atoms: _396  and  _397
REMARK  170  A    between atoms: _402  and  _404
REMARK  171  A    between atoms: _404  and  _405
REMARK  172  A    between atoms: _407  and  _409
REMARK  173  A    between atoms: _409  and  _410
REMARK  174  A    between atoms: _409  and  _412
REMARK  175  A    between atoms: _412  and  _413
REMARK  176  A    between atoms: _419  and  _421
REMARK  177  A    between atoms: _421  and  _422
REMARK  178  A    between atoms: _421  and  _424
REMARK  179  A    between atoms: _424  and  _425
REMARK  180  A    between atoms: _428  and  _430
REMARK  181  A    between atoms: _430  and  _431
REMARK  182  A    between atoms: _434  and  _436
REMARK  183  A    between atoms: _436  and  _437
REMARK  184  A    between atoms: _436  and  _439
REMARK  185  A    between atoms: _439  and  _440
REMARK  186  A    between atoms: _443  and  _445
REMARK  187  A    between atoms: _445  and  _446
REMARK  188  A    between atoms: _445  and  _448
REMARK  189  A    between atoms: _448  and  _449
REMARK  190  A    between atoms: _452  and  _454
REMARK  191  A    between atoms: _454  and  _455
REMARK  192  A    between atoms: _457  and  _459
REMARK  193  A    between atoms: _459  and  _460
REMARK  194  A    between atoms: _459  and  _462
REMARK  195  A    between atoms: _462  and  _463
REMARK  196  A    between atoms: _466  and  _468
REMARK  197  A    between atoms: _468  and  _469
REMARK  198  A    between atoms: _468  and  _471
REMARK  199  A    between atoms: _471  and  _472
REMARK  200  A    between atoms: _475  and  _477
REMARK  201  A    between atoms: _477  and  _478
REMARK  202  A    between atoms: _477  and  _480
REMARK  203  A    between atoms: _480  and  _481
REMARK  204  A    between atoms: _484  and  _486
REMARK  205  A    between atoms: _486  and  _487
REMARK  206  A    between atoms: _486  and  _489
REMARK  207  A    between atoms: _489  and  _490
REMARK  208  A    between atoms: _495  and  _496
REMARK  209  A    between atoms: _498  and  _500
REMARK  210  A    between atoms: _500  and  _501
REMARK  211  A    between atoms: _500  and  _503
REMARK  212  A    between atoms: _503  and  _504
REMARK  213  A    between atoms: _510  and  _512
REMARK  214  A    between atoms: _512  and  _513
REMARK  215  A    between atoms: _515  and  _517
REMARK  216  A    between atoms: _517  and  _518
REMARK  217  A    between atoms: _517  and  _520
REMARK  218  A    between atoms: _520  and  _521
REMARK  219  A    between atoms: _524  and  _526
REMARK  220  A    between atoms: _526  and  _527
REMARK  221  A    between atoms: _529  and  _531
REMARK  222  A    between atoms: _531  and  _532
REMARK  223  A    between atoms: _531  and  _534
REMARK  224  A    between atoms: _534  and  _535
REMARK  225  A    between atoms: _538  and  _540
REMARK  226  A    between atoms: _540  and  _541
REMARK  227  A    between atoms: _540  and  _543
REMARK  228  A    between atoms: _543  and  _544
REMARK  229  A    between atoms: _549  and  _551
REMARK  230  A    between atoms: _551  and  _552
REMARK  231  A    between atoms: _551  and  _554
REMARK  232  A    between atoms: _554  and  _555
REMARK  233  A    between atoms: _558  and  _560
REMARK  234  A    between atoms: _560  and  _561
REMARK  235  A    between atoms: _563  and  _565
REMARK  236  A    between atoms: _565  and  _566
REMARK  237  A    between atoms: _565  and  _568
REMARK  238  A    between atoms: _568  and  _569
REMARK                            x       y       z     vdW  Elec       q    Type
REMARK                         _______ _______ _______ _____ _____    ______ ____
ROOT
ATOM      1  O   HOH     1     -11.945  -8.606   9.941  0.00  0.00    +0.000 OA
ENDROOT
TORSDOF 0
REMARK  Name = ../refined-set-2016/3prs/3prs_pocket.pdb
REMARK  238 active torsions:
REMARK  status: ('A' for Active; 'I' for Inactive)
REMARK    1  A    between atoms: _1  and  _3
REMARK    2  A    between atoms: _3  and  _4
REMARK    3  A    between atoms: _3  and  _6
REMARK    4  A    between atoms: _6  and  _7
REMARK    5  A    between atoms: _10  and  _12
REMARK    6  A    between atoms: _12  and  _13
REMARK    7  A    between atoms: _12  and  _15
REMARK    8  A    between atoms: _15  and  _16
REMARK    9  A    between atoms: _19  and  _21
REMARK   10  A    between atoms: _21  and  _22
REMARK   11  A    between atoms: _21  and  _24
REMARK   12  A    between atoms: _24  and  _25
REMARK   13  A    between atoms: _28  and  _30
REMARK   14  A    between atoms: _30  and  _31
REMARK   15  A    between atoms: _30  and  _33
REMARK   16  A    between atoms: _33  and  _34
REMARK   17  A    between atoms: _37  and  _39
REMARK   18  A    between atoms: _39  and  _40
REMARK   19  A    between atoms: _39  and  _42
REMARK   20  A    between atoms: _42  and  _43
REMARK   21  A    between atoms: _46  and  _48
REMARK   22  A    between atoms: _48  and  _49
REMARK   23  A    between atoms: _52  and  _54
REMARK   24  A    between atoms: _54  and  _55
REMARK   25  A    between atoms: _54  and  _57
REMARK   26  A    between atoms: _57  and  _58
REMARK   27  A    between atoms: _63  and  _64
REMARK   28  A    between atoms: _66  and  _68
REMARK   29  A    between atoms: _68  and  _69
REMARK   30  A    between atoms: _68  and  _71
REMARK   31  A    between atoms: _71  and  _72
REMARK   32  A    between atoms: _75  and  _77
REMARK   33  A    between atoms: _77  and  _78
REMARK   34  A    between atoms: _77  and  _80
REMARK   35  A    between atoms: _80  and  _81
REMARK   36  A    between atoms: _87  and  _89
REMARK   37  A    between atoms: _89  and  _90
REMARK   38  A    between atoms: _89  and  _92
REMARK   39  A    between atoms: _92  and  _93
REMARK   40  A    between atoms: _96  and  _98
REMARK   41  A    between atoms: _98  and  _99
REMARK   42  A    between atoms: _98  and  _101
REMARK   43  A    between atoms: _101  and  _102
REMARK   44  A    between atoms: _105  and  _107
REMARK   45  A    between atoms: _107  and  _108
REMARK   46  A    between atoms: _110  and  _112
REMARK   47  A    between atoms: _112  and  _113
REMARK   48  A    between atoms: _112  and  _115
REMARK   49  A    between atoms: _115  and  _116
REMARK   50  A    between atoms: _118  and  _120
REMARK   51  A    between atoms: _120  and  _121
REMARK   52  A    between atoms: _120  and  _123
REMARK   53  A    between atoms: _123  and  _124
REMARK   54  A    between atoms: _126  and  _128
REMARK   55  A    between atoms: _128  and  _129
REMARK   56  A    between atoms: _128  and  _131
REMARK   57  A    between atoms: _131  and  _132
REMARK   58  A    between atoms: _135  and  _137
REMARK   59  A    between atoms: _137  and  _138
REMARK   60  A    between atoms: _137  and  _140
REMARK   61  A    between atoms: _140  and  _141
REMARK   62  A    between atoms: _151  and  _153
REMARK   63  A    between atoms: _153  and  _154
REMARK   64  A    between atoms: _153  and  _156
REMARK   65  A    between atoms: _156  and  _157
REMARK   66  A    between atoms: _159  and  _161
REMARK   67  A    between atoms: _161  and  _162
REMARK   68  A    between atoms: _161  and  _164
REMARK   69  A    between atoms: _164  and  _165
REMARK   70  A    between atoms: _168  and  _170
REMARK   71  A    between atoms: _170  and  _171
REMARK   72  A    between atoms: _170  and  _173
REMARK   73  A    between atoms: _173  and  _174
REMARK   74  A    between atoms: _176  and  _178
REMARK   75  A    between atoms: _178  and  _179
REMARK   76  A    between atoms: _178  and  _181
REMARK   77  A    between atoms: _181  and  _182
REMARK   78  A    between atoms: _187  and  _188
REMARK   79  A    between atoms: _190  and  _192
REMARK   80  A    between atoms: _192  and  _193
REMARK   81  A    between atoms: _195  and  _197
REMARK   82  A    between atoms: _197  and  _198
REMARK   83  A    between atoms: _197  and  _200
REMARK   84  A    between atoms: _200  and  _201
REMARK   85  A    between atoms: _204  and  _206
REMARK   86  A    between atoms: _206  and  _207
REMARK   87  A    between atoms: _209  and  _211
REMARK   88  A    between atoms: _211  and  _212
REMARK   89  A    between atoms: _211  and  _214
REMARK   90  A    between atoms: _214  and  _215
REMARK   91  A    between atoms: _217  and  _219
REMARK   92  A    between atoms: _219  and  _220
REMARK   93  A    between atoms: _219  and  _222
REMARK   94  A    between atoms: _222  and  _223
REMARK   95  A    between atoms: _225  and  _227
REMARK   96  A    between atoms: _227  and  _228
REMARK   97  A    between atoms: _227  and  _230
REMARK   98  A    between atoms: _230  and  _231
REMARK   99  A    between atoms: _233  and  _235
REMARK  100  A    between atoms: _235  and  _236
REMARK  101  A    between atoms: _235  and  _238
REMARK  102  A    between atoms: _238  and  _239
REMARK  103  A    between atoms: _245  and  _247
REMARK  104  A    between atoms: _247  and  _248
REMARK  105  A    between atoms: _247  and  _250
REMARK  106  A    between atoms: _250  and  _251
REMARK  107  A    between atoms: _251  and  _252
REMARK  108  A    between atoms: _255  and  _257
REMARK  109  A    between atoms: _257  and  _258
REMARK  110  A    between atoms: _257  and  _260
REMARK  111  A    between atoms: _260  and  _261
REMARK  112  A    between atoms: _264  and  _266
REMARK  113  A    between atoms: _266  and  _267
REMARK  114  A    between atoms: _266  and  _269
REMARK  115  A    between atoms: _269  and  _270
REMARK  116  A    between atoms: _272  and  _274
REMARK  117  A    between atoms: _274  and  _275
REMARK  118  A    between atoms: _274  and  _277
REMARK  119  A    between atoms: _277  and  _278
REMARK  120  A    between atoms: _281  and  _283
REMARK  121  A    between atoms: _283  and  _284
REMARK  122  A    between atoms: _283  and  _286
REMARK  123  A    between atoms: _286  and  _287
REMARK  124  A    between atoms: _290  and  _292
REMARK  125  A    between atoms: _292  and  _293
REMARK  126  A    between atoms: _295  and  _297
REMARK  127  A    between atoms: _297  and  _298
REMARK  128  A    between atoms: _297  and  _300
REMARK  129  A    between atoms: _300  and  _301
REMARK  130  A    between atoms: _304  and  _306
REMARK  131  A    between atoms: _306  and  _307
REMARK  132  A    between atoms: _306  and  _309
REMARK  133  A    between atoms: _309  and  _310
REMARK  134  A    between atoms: _313  and  _315
REMARK  135  A    between atoms: _315  and  _316
REMARK  136  A    between atoms: _315  and  _318
REMARK  137  A    between atoms: _318  and  _319
REMARK  138  A    between atoms: _322  and  _324
REMARK  139  A    between atoms: _324  and  _325
REMARK  140  A    between atoms: _328  and  _330
REMARK  141  A    between atoms: _330  and  _331
REMARK  142  A    between atoms: _330  and  _333
REMARK  143  A    between atoms: _333  and  _334
REMARK  144  A    between atoms: _340  and  _342
REMARK  145  A    between atoms: _342  and  _343
REMARK  146  A    between atoms: _342  and  _345
REMARK  147  A    between atoms: _345  and  _346
REMARK  148  A    between atoms: _349  and  _351
REMARK  149  A    between atoms: _351  and  _352
REMARK  150  A    between atoms: _351  and  _354
REMARK  151  A    between atoms: _354  and  _355
REMARK  152  A    between atoms: _358  and  _360
REMARK  153  A    between atoms: _360  and  _361
REMARK  154  A    between atoms: _360  and  _363
REMARK  155  A    between atoms: _363  and  _364
REMARK  156  A    between atoms: _369  and  _371
REMARK  157  A    between atoms: _371  and  _372
REMARK  158  A    between atoms: _371  and  _374
REMARK  159  A    between atoms: _374  and  _375
REMARK  160  A    between atoms: _378  and  _380
REMARK  161  A    between atoms: _380  and  _381
REMARK  162  A    between atoms: _380  and  _383
REMARK  163  A    between atoms: _383  and  _384
REMARK  164  A    between atoms: _384  and  _385
REMARK  165  A    between atoms: _390  and  _392
REMARK  166  A    between atoms: _392  and  _393
REMARK  167  A    between atoms: _392  and  _395
REMARK  168  A    between atoms: _395  and  _396
REMARK  169  A    between atoms: _396  and  _397
REMARK  170  A    between atoms: _402  and  _404
REMARK  171  A    between atoms: _404  and  _405
REMARK  172  A    between atoms: _407  and  _409
REMARK  173  A    between atoms: _409  and  _410
REMARK  174  A    between atoms: _409  and  _412
REMARK  175  A    between atoms: _412  and  _413
REMARK  176  A    between atoms: _419  and  _421
REMARK  177  A    between atoms: _421  and  _422
REMARK  178  A    between atoms: _421  and  _424
REMARK  179  A    between atoms: _424  and  _425
REMARK  180  A    between atoms: _428  and  _430
REMARK  181  A    between atoms: _430  and  _431
REMARK  182  A    between atoms: _434  and  _436
REMARK  183  A    between atoms: _436  and  _437
REMARK  184  A    between atoms: _436  and  _439
REMARK  185  A    between atoms: _439  and  _440
REMARK  186  A    between atoms: _443  and  _445
REMARK  187  A    between atoms: _445  and  _446
REMARK  188  A    between atoms: _445  and  _448
REMARK  189  A    between atoms: _448  and  _449
REMARK  190  A    between atoms: _452  and  _454
REMARK  191  A    between atoms: _454  and  _455
REMARK  192  A    between atoms: _457  and  _459
REMARK  193  A    between atoms: _459  and  _460
REMARK  194  A    between atoms: _459  and  _462
REMARK  195  A    between atoms: _462  and  _463
REMARK  196  A    between atoms: _466  and  _468
REMARK  197  A    between atoms: _468  and  _469
REMARK  198  A    between atoms: _468  and  _471
REMARK  199  A    between atoms: _471  and  _472
REMARK  200  A    between atoms: _475  and  _477
REMARK  201  A    between atoms: _477  and  _478
REMARK  202  A    between atoms: _477  and  _480
REMARK  203  A    between atoms: _480  and  _481
REMARK  204  A    between atoms: _484  and  _486
REMARK  205  A    between atoms: _486  and  _487
REMARK  206  A    between atoms: _486  and  _489
REMARK  207  A    between atoms: _489  and  _490
REMARK  208  A    between atoms: _495  and  _496
REMARK  209  A    between atoms: _498  and  _500
REMARK  210  A    between atoms: _500  and  _501
REMARK  211  A    between atoms: _500  and  _503
REMARK  212  A    between atoms: _503  and  _504
REMARK  213  A    between atoms: _510  and  _512
REMARK  214  A    between atoms: _512  and  _513
REMARK  215  A    between atoms: _515  and  _517
REMARK  216  A    between atoms: _517  and  _518
REMARK  217  A    between atoms: _517  and  _520
REMARK  218  A    between atoms: _520  and  _521
REMARK  219  A    between atoms: _524  and  _526
REMARK  220  A    between atoms: _526  and  _527
REMARK  221  A    between atoms: _529  and  _531
REMARK  222  A    between atoms: _531  and  _532
REMARK  223  A    between atoms: _531  and  _534
REMARK  224  A    between atoms: _534  and  _535
REMARK  225  A    between atoms: _538  and  _540
REMARK  226  A    between atoms: _540  and  _541
REMARK  227  A    between atoms: _540  and  _543
REMARK  228  A    between atoms: _543  and  _544
REMARK  229  A    between atoms: _549  and  _551
REMARK  230  A    between atoms: _551  and  _552
REMARK  231  A    between atoms: _551  and  _554
REMARK  232  A    between atoms: _554  and  _555
REMARK  233  A    between atoms: _558  and  _560
REMARK  234  A    between atoms: _560  and  _561
REMARK  235  A    between atoms: _563  and  _565
REMARK  236  A    between atoms: _565  and  _566
REMARK  237  A    between atoms: _565  and  _568
REMARK  238  A    between atoms: _568  and  _569
REMARK                            x       y       z     vdW  Elec       q    Type
REMARK                         _______ _______ _______ _____ _____    ______ ____
ROOT
ATOM      1  O   HOH     1     -11.770  -3.993   8.756  0.00  0.00    +0.000 OA
ENDROOT
TORSDOF 0
REMARK  Name = ../refined-set-2016/3prs/3prs_pocket.pdb
REMARK  238 active torsions:
REMARK  status: ('A' for Active; 'I' for Inactive)
REMARK    1  A    between atoms: _1  and  _3
REMARK    2  A    between atoms: _3  and  _4
REMARK    3  A    between atoms: _3  and  _6
REMARK    4  A    between atoms: _6  and  _7
REMARK    5  A    between atoms: _10  and  _12
REMARK    6  A    between atoms: _12  and  _13
REMARK    7  A    between atoms: _12  and  _15
REMARK    8  A    between atoms: _15  and  _16
REMARK    9  A    between atoms: _19  and  _21
REMARK   10  A    between atoms: _21  and  _22
REMARK   11  A    between atoms: _21  and  _24
REMARK   12  A    between atoms: _24  and  _25
REMARK   13  A    between atoms: _28  and  _30
REMARK   14  A    between atoms: _30  and  _31
REMARK   15  A    between atoms: _30  and  _33
REMARK   16  A    between atoms: _33  and  _34
REMARK   17  A    between atoms: _37  and  _39
REMARK   18  A    between atoms: _39  and  _40
REMARK   19  A    between atoms: _39  and  _42
REMARK   20  A    between atoms: _42  and  _43
REMARK   21  A    between atoms: _46  and  _48
REMARK   22  A    between atoms: _48  and  _49
REMARK   23  A    between atoms: _52  and  _54
REMARK   24  A    between atoms: _54  and  _55
REMARK   25  A    between atoms: _54  and  _57
REMARK   26  A    between atoms: _57  and  _58
REMARK   27  A    between atoms: _63  and  _64
REMARK   28  A    between atoms: _66  and  _68
REMARK   29  A    between atoms: _68  and  _69
REMARK   30  A    between atoms: _68  and  _71
REMARK   31  A    between atoms: _71  and  _72
REMARK   32  A    between atoms: _75  and  _77
REMARK   33  A    between atoms: _77  and  _78
REMARK   34  A    between atoms: _77  and  _80
REMARK   35  A    between atoms: _80  and  _81
REMARK   36  A    between atoms: _87  and  _89
REMARK   37  A    between atoms: _89  and  _90
REMARK   38  A    between atoms: _89  and  _92
REMARK   39  A    between atoms: _92  and  _93
REMARK   40  A    between atoms: _96  and  _98
REMARK   41  A    between atoms: _98  and  _99
REMARK   42  A    between atoms: _98  and  _101
REMARK   43  A    between atoms: _101  and  _102
REMARK   44  A    between atoms: _105  and  _107
REMARK   45  A    between atoms: _107  and  _108
REMARK   46  A    between atoms: _110  and  _112
REMARK   47  A    between atoms: _112  and  _113
REMARK   48  A    between atoms: _112  and  _115
REMARK   49  A    between atoms: _115  and  _116
REMARK   50  A    between atoms: _118  and  _120
REMARK   51  A    between atoms: _120  and  _121
REMARK   52  A    between atoms: _120  and  _123
REMARK   53  A    between atoms: _123  and  _124
REMARK   54  A    between atoms: _126  and  _128
REMARK   55  A    between atoms: _128  and  _129
REMARK   56  A    between atoms: _128  and  _131
REMARK   57  A    between atoms: _131  and  _132
REMARK   58  A    between atoms: _135  and  _137
REMARK   59  A    between atoms: _137  and  _138
REMARK   60  A    between atoms: _137  and  _140
REMARK   61  A    between atoms: _140  and  _141
REMARK   62  A    between atoms: _151  and  _153
REMARK   63  A    between atoms: _153  and  _154
REMARK   64  A    between atoms: _153  and  _156
REMARK   65  A    between atoms: _156  and  _157
REMARK   66  A    between atoms: _159  and  _161
REMARK   67  A    between atoms: _161  and  _162
REMARK   68  A    between atoms: _161  and  _164
REMARK   69  A    between atoms: _164  and  _165
REMARK   70  A    between atoms: _168  and  _170
REMARK   71  A    between atoms: _170  and  _171
REMARK   72  A    between atoms: _170  and  _173
REMARK   73  A    between atoms: _173  and  _174
REMARK   74  A    between atoms: _176  and  _178
REMARK   75  A    between atoms: _178  and  _179
REMARK   76  A    between atoms: _178  and  _181
REMARK   77  A    between atoms: _181  and  _182
REMARK   78  A    between atoms: _187  and  _188
REMARK   79  A    between atoms: _190  and  _192
REMARK   80  A    between atoms: _192  and  _193
REMARK   81  A    between atoms: _195  and  _197
REMARK   82  A    between atoms: _197  and  _198
REMARK   83  A    between atoms: _197  and  _200
REMARK   84  A    between atoms: _200  and  _201
REMARK   85  A    between atoms: _204  and  _206
REMARK   86  A    between atoms: _206  and  _207
REMARK   87  A    between atoms: _209  and  _211
REMARK   88  A    between atoms: _211  and  _212
REMARK   89  A    between atoms: _211  and  _214
REMARK   90  A    between atoms: _214  and  _215
REMARK   91  A    between atoms: _217  and  _219
REMARK   92  A    between atoms: _219  and  _220
REMARK   93  A    between atoms: _219  and  _222
REMARK   94  A    between atoms: _222  and  _223
REMARK   95  A    between atoms: _225  and  _227
REMARK   96  A    between atoms: _227  and  _228
REMARK   97  A    between atoms: _227  and  _230
REMARK   98  A    between atoms: _230  and  _231
REMARK   99  A    between atoms: _233  and  _235
REMARK  100  A    between atoms: _235  and  _236
REMARK  101  A    between atoms: _235  and  _238
REMARK  102  A    between atoms: _238  and  _239
REMARK  103  A    between atoms: _245  and  _247
REMARK  104  A    between atoms: _247  and  _248
REMARK  105  A    between atoms: _247  and  _250
REMARK  106  A    between atoms: _250  and  _251
REMARK  107  A    between atoms: _251  and  _252
REMARK  108  A    between atoms: _255  and  _257
REMARK  109  A    between atoms: _257  and  _258
REMARK  110  A    between atoms: _257  and  _260
REMARK  111  A    between atoms: _260  and  _261
REMARK  112  A    between atoms: _264  and  _266
REMARK  113  A    between atoms: _266  and  _267
REMARK  114  A    between atoms: _266  and  _269
REMARK  115  A    between atoms: _269  and  _270
REMARK  116  A    between atoms: _272  and  _274
REMARK  117  A    between atoms: _274  and  _275
REMARK  118  A    between atoms: _274  and  _277
REMARK  119  A    between atoms: _277  and  _278
REMARK  120  A    between atoms: _281  and  _283
REMARK  121  A    between atoms: _283  and  _284
REMARK  122  A    between atoms: _283  and  _286
REMARK  123  A    between atoms: _286  and  _287
REMARK  124  A    between atoms: _290  and  _292
REMARK  125  A    between atoms: _292  and  _293
REMARK  126  A    between atoms: _295  and  _297
REMARK  127  A    between atoms: _297  and  _298
REMARK  128  A    between atoms: _297  and  _300
REMARK  129  A    between atoms: _300  and  _301
REMARK  130  A    between atoms: _304  and  _306
REMARK  131  A    between atoms: _306  and  _307
REMARK  132  A    between atoms: _306  and  _309
REMARK  133  A    between atoms: _309  and  _310
REMARK  134  A    between atoms: _313  and  _315
REMARK  135  A    between atoms: _315  and  _316
REMARK  136  A    between atoms: _315  and  _318
REMARK  137  A    between atoms: _318  and  _319
REMARK  138  A    between atoms: _322  and  _324
REMARK  139  A    between atoms: _324  and  _325
REMARK  140  A    between atoms: _328  and  _330
REMARK  141  A    between atoms: _330  and  _331
REMARK  142  A    between atoms: _330  and  _333
REMARK  143  A    between atoms: _333  and  _334
REMARK  144  A    between atoms: _340  and  _342
REMARK  145  A    between atoms: _342  and  _343
REMARK  146  A    between atoms: _342  and  _345
REMARK  147  A    between atoms: _345  and  _346
REMARK  148  A    between atoms: _349  and  _351
REMARK  149  A    between atoms: _351  and  _352
REMARK  150  A    between atoms: _351  and  _354
REMARK  151  A    between atoms: _354  and  _355
REMARK  152  A    between atoms: _358  and  _360
REMARK  153  A    between atoms: _360  and  _361
REMARK  154  A    between atoms: _360  and  _363
REMARK  155  A    between atoms: _363  and  _364
REMARK  156  A    between atoms: _369  and  _371
REMARK  157  A    between atoms: _371  and  _372
REMARK  158  A    between atoms: _371  and  _374
REMARK  159  A    between atoms: _374  and  _375
REMARK  160  A    between atoms: _378  and  _380
REMARK  161  A    between atoms: _380  and  _381
REMARK  162  A    between atoms: _380  and  _383
REMARK  163  A    between atoms: _383  and  _384
REMARK  164  A    between atoms: _384  and  _385
REMARK  165  A    between atoms: _390  and  _392
REMARK  166  A    between atoms: _392  and  _393
REMARK  167  A    between atoms: _392  and  _395
REMARK  168  A    between atoms: _395  and  _396
REMARK  169  A    between atoms: _396  and  _397
REMARK  170  A    between atoms: _402  and  _404
REMARK  171  A    between atoms: _404  and  _405
REMARK  172  A    between atoms: _407  and  _409
REMARK  173  A    between atoms: _409  and  _410
REMARK  174  A    between atoms: _409  and  _412
REMARK  175  A    between atoms: _412  and  _413
REMARK  176  A    between atoms: _419  and  _421
REMARK  177  A    between atoms: _421  and  _422
REMARK  178  A    between atoms: _421  and  _424
REMARK  179  A    between atoms: _424  and  _425
REMARK  180  A    between atoms: _428  and  _430
REMARK  181  A    between atoms: _430  and  _431
REMARK  182  A    between atoms: _434  and  _436
REMARK  183  A    between atoms: _436  and  _437
REMARK  184  A    between atoms: _436  and  _439
REMARK  185  A    between atoms: _439  and  _440
REMARK  186  A    between atoms: _443  and  _445
REMARK  187  A    between atoms: _445  and  _446
REMARK  188  A    between atoms: _445  and  _448
REMARK  189  A    between atoms: _448  and  _449
REMARK  190  A    between atoms: _452  and  _454
REMARK  191  A    between atoms: _454  and  _455
REMARK  192  A    between atoms: _457  and  _459
REMARK  193  A    between atoms: _459  and  _460
REMARK  194  A    between atoms: _459  and  _462
REMARK  195  A    between atoms: _462  and  _463
REMARK  196  A    between atoms: _466  and  _468
REMARK  197  A    between atoms: _468  and  _469
REMARK  198  A    between atoms: _468  and  _471
REMARK  199  A    between atoms: _471  and  _472
REMARK  200  A    between atoms: _475  and  _477
REMARK  201  A    between atoms: _477  and  _478
REMARK  202  A    between atoms: _477  and  _480
REMARK  203  A    between atoms: _480  and  _481
REMARK  204  A    between atoms: _484  and  _486
REMARK  205  A    between atoms: _486  and  _487
REMARK  206  A    between atoms: _486  and  _489
REMARK  207  A    between atoms: _489  and  _490
REMARK  208  A    between atoms: _495  and  _496
REMARK  209  A    between atoms: _498  and  _500
REMARK  210  A    between atoms: _500  and  _501
REMARK  211  A    between atoms: _500  and  _503
REMARK  212  A    between atoms: _503  and  _504
REMARK  213  A    between atoms: _510  and  _512
REMARK  214  A    between atoms: _512  and  _513
REMARK  215  A    between atoms: _515  and  _517
REMARK  216  A    between atoms: _517  and  _518
REMARK  217  A    between atoms: _517  and  _520
REMARK  218  A    between atoms: _520  and  _521
REMARK  219  A    between atoms: _524  and  _526
REMARK  220  A    between atoms: _526  and  _527
REMARK  221  A    between atoms: _529  and  _531
REMARK  222  A    between atoms: _531  and  _532
REMARK  223  A    between atoms: _531  and  _534
REMARK  224  A    between atoms: _534  and  _535
REMARK  225  A    between atoms: _538  and  _540
REMARK  226  A    between atoms: _540  and  _541
REMARK  227  A    between atoms: _540  and  _543
REMARK  228  A    between atoms: _543  and  _544
REMARK  229  A    between atoms: _549  and  _551
REMARK  230  A    between atoms: _551  and  _552
REMARK  231  A    between atoms: _551  and  _554
REMARK  232  A    between atoms: _554  and  _555
REMARK  233  A    between atoms: _558  and  _560
REMARK  234  A    between atoms: _560  and  _561
REMARK  235  A    between atoms: _563  and  _565
REMARK  236  A    between atoms: _565  and  _566
REMARK  237  A    between atoms: _565  and  _568
REMARK  238  A    between atoms: _568  and  _569
REMARK                            x       y       z     vdW  Elec       q    Type
REMARK                         _______ _______ _______ _____ _____    ______ ____
ROOT
ATOM      1  O   HOH     1     -13.377  -2.408  -0.121  0.00  0.00    +0.000 OA
ENDROOT
TORSDOF 0
REMARK  Name = ../refined-set-2016/3prs/3prs_pocket.pdb
REMARK  238 active torsions:
REMARK  status: ('A' for Active; 'I' for Inactive)
REMARK    1  A    between atoms: _1  and  _3
REMARK    2  A    between atoms: _3  and  _4
REMARK    3  A    between atoms: _3  and  _6
REMARK    4  A    between atoms: _6  and  _7
REMARK    5  A    between atoms: _10  and  _12
REMARK    6  A    between atoms: _12  and  _13
REMARK    7  A    between atoms: _12  and  _15
REMARK    8  A    between atoms: _15  and  _16
REMARK    9  A    between atoms: _19  and  _21
REMARK   10  A    between atoms: _21  and  _22
REMARK   11  A    between atoms: _21  and  _24
REMARK   12  A    between atoms: _24  and  _25
REMARK   13  A    between atoms: _28  and  _30
REMARK   14  A    between atoms: _30  and  _31
REMARK   15  A    between atoms: _30  and  _33
REMARK   16  A    between atoms: _33  and  _34
REMARK   17  A    between atoms: _37  and  _39
REMARK   18  A    between atoms: _39  and  _40
REMARK   19  A    between atoms: _39  and  _42
REMARK   20  A    between atoms: _42  and  _43
REMARK   21  A    between atoms: _46  and  _48
REMARK   22  A    between atoms: _48  and  _49
REMARK   23  A    between atoms: _52  and  _54
REMARK   24  A    between atoms: _54  and  _55
REMARK   25  A    between atoms: _54  and  _57
REMARK   26  A    between atoms: _57  and  _58
REMARK   27  A    between atoms: _63  and  _64
REMARK   28  A    between atoms: _66  and  _68
REMARK   29  A    between atoms: _68  and  _69
REMARK   30  A    between atoms: _68  and  _71
REMARK   31  A    between atoms: _71  and  _72
REMARK   32  A    between atoms: _75  and  _77
REMARK   33  A    between atoms: _77  and  _78
REMARK   34  A    between atoms: _77  and  _80
REMARK   35  A    between atoms: _80  and  _81
REMARK   36  A    between atoms: _87  and  _89
REMARK   37  A    between atoms: _89  and  _90
REMARK   38  A    between atoms: _89  and  _92
REMARK   39  A    between atoms: _92  and  _93
REMARK   40  A    between atoms: _96  and  _98
REMARK   41  A    between atoms: _98  and  _99
REMARK   42  A    between atoms: _98  and  _101
REMARK   43  A    between atoms: _101  and  _102
REMARK   44  A    between atoms: _105  and  _107
REMARK   45  A    between atoms: _107  and  _108
REMARK   46  A    between atoms: _110  and  _112
REMARK   47  A    between atoms: _112  and  _113
REMARK   48  A    between atoms: _112  and  _115
REMARK   49  A    between atoms: _115  and  _116
REMARK   50  A    between atoms: _118  and  _120
REMARK   51  A    between atoms: _120  and  _121
REMARK   52  A    between atoms: _120  and  _123
REMARK   53  A    between atoms: _123  and  _124
REMARK   54  A    between atoms: _126  and  _128
REMARK   55  A    between atoms: _128  and  _129
REMARK   56  A    between atoms: _128  and  _131
REMARK   57  A    between atoms: _131  and  _132
REMARK   58  A    between atoms: _135  and  _137
REMARK   59  A    between atoms: _137  and  _138
REMARK   60  A    between atoms: _137  and  _140
REMARK   61  A    between atoms: _140  and  _141
REMARK   62  A    between atoms: _151  and  _153
REMARK   63  A    between atoms: _153  and  _154
REMARK   64  A    between atoms: _153  and  _156
REMARK   65  A    between atoms: _156  and  _157
REMARK   66  A    between atoms: _159  and  _161
REMARK   67  A    between atoms: _161  and  _162
REMARK   68  A    between atoms: _161  and  _164
REMARK   69  A    between atoms: _164  and  _165
REMARK   70  A    between atoms: _168  and  _170
REMARK   71  A    between atoms: _170  and  _171
REMARK   72  A    between atoms: _170  and  _173
REMARK   73  A    between atoms: _173  and  _174
REMARK   74  A    between atoms: _176  and  _178
REMARK   75  A    between atoms: _178  and  _179
REMARK   76  A    between atoms: _178  and  _181
REMARK   77  A    between atoms: _181  and  _182
REMARK   78  A    between atoms: _187  and  _188
REMARK   79  A    between atoms: _190  and  _192
REMARK   80  A    between atoms: _192  and  _193
REMARK   81  A    between atoms: _195  and  _197
REMARK   82  A    between atoms: _197  and  _198
REMARK   83  A    between atoms: _197  and  _200
REMARK   84  A    between atoms: _200  and  _201
REMARK   85  A    between atoms: _204  and  _206
REMARK   86  A    between atoms: _206  and  _207
REMARK   87  A    between atoms: _209  and  _211
REMARK   88  A    between atoms: _211  and  _212
REMARK   89  A    between atoms: _211  and  _214
REMARK   90  A    between atoms: _214  and  _215
REMARK   91  A    between atoms: _217  and  _219
REMARK   92  A    between atoms: _219  and  _220
REMARK   93  A    between atoms: _219  and  _222
REMARK   94  A    between atoms: _222  and  _223
REMARK   95  A    between atoms: _225  and  _227
REMARK   96  A    between atoms: _227  and  _228
REMARK   97  A    between atoms: _227  and  _230
REMARK   98  A    between atoms: _230  and  _231
REMARK   99  A    between atoms: _233  and  _235
REMARK  100  A    between atoms: _235  and  _236
REMARK  101  A    between atoms: _235  and  _238
REMARK  102  A    between atoms: _238  and  _239
REMARK  103  A    between atoms: _245  and  _247
REMARK  104  A    between atoms: _247  and  _248
REMARK  105  A    between atoms: _247  and  _250
REMARK  106  A    between atoms: _250  and  _251
REMARK  107  A    between atoms: _251  and  _252
REMARK  108  A    between atoms: _255  and  _257
REMARK  109  A    between atoms: _257  and  _258
REMARK  110  A    between atoms: _257  and  _260
REMARK  111  A    between atoms: _260  and  _261
REMARK  112  A    between atoms: _264  and  _266
REMARK  113  A    between atoms: _266  and  _267
REMARK  114  A    between atoms: _266  and  _269
REMARK  115  A    between atoms: _269  and  _270
REMARK  116  A    between atoms: _272  and  _274
REMARK  117  A    between atoms: _274  and  _275
REMARK  118  A    between atoms: _274  and  _277
REMARK  119  A    between atoms: _277  and  _278
REMARK  120  A    between atoms: _281  and  _283
REMARK  121  A    between atoms: _283  and  _284
REMARK  122  A    between atoms: _283  and  _286
REMARK  123  A    between atoms: _286  and  _287
REMARK  124  A    between atoms: _290  and  _292
REMARK  125  A    between atoms: _292  and  _293
REMARK  126  A    between atoms: _295  and  _297
REMARK  127  A    between atoms: _297  and  _298
REMARK  128  A    between atoms: _297  and  _300
REMARK  129  A    between atoms: _300  and  _301
REMARK  130  A    between atoms: _304  and  _306
REMARK  131  A    between atoms: _306  and  _307
REMARK  132  A    between atoms: _306  and  _309
REMARK  133  A    between atoms: _309  and  _310
REMARK  134  A    between atoms: _313  and  _315
REMARK  135  A    between atoms: _315  and  _316
REMARK  136  A    between atoms: _315  and  _318
REMARK  137  A    between atoms: _318  and  _319
REMARK  138  A    between atoms: _322  and  _324
REMARK  139  A    between atoms: _324  and  _325
REMARK  140  A    between atoms: _328  and  _330
REMARK  141  A    between atoms: _330  and  _331
REMARK  142  A    between atoms: _330  and  _333
REMARK  143  A    between atoms: _333  and  _334
REMARK  144  A    between atoms: _340  and  _342
REMARK  145  A    between atoms: _342  and  _343
REMARK  146  A    between atoms: _342  and  _345
REMARK  147  A    between atoms: _345  and  _346
REMARK  148  A    between atoms: _349  and  _351
REMARK  149  A    between atoms: _351  and  _352
REMARK  150  A    between atoms: _351  and  _354
REMARK  151  A    between atoms: _354  and  _355
REMARK  152  A    between atoms: _358  and  _360
REMARK  153  A    between atoms: _360  and  _361
REMARK  154  A    between atoms: _360  and  _363
REMARK  155  A    between atoms: _363  and  _364
REMARK  156  A    between atoms: _369  and  _371
REMARK  157  A    between atoms: _371  and  _372
REMARK  158  A    between atoms: _371  and  _374
REMARK  159  A    between atoms: _374  and  _375
REMARK  160  A    between atoms: _378  and  _380
REMARK  161  A    between atoms: _380  and  _381
REMARK  162  A    between atoms: _380  and  _383
REMARK  163  A    between atoms: _383  and  _384
REMARK  164  A    between atoms: _384  and  _385
REMARK  165  A    between atoms: _390  and  _392
REMARK  166  A    between atoms: _392  and  _393
REMARK  167  A    between atoms: _392  and  _395
REMARK  168  A    between atoms: _395  and  _396
REMARK  169  A    between atoms: _396  and  _397
REMARK  170  A    between atoms: _402  and  _404
REMARK  171  A    between atoms: _404  and  _405
REMARK  172  A    between atoms: _407  and  _409
REMARK  173  A    between atoms: _409  and  _410
REMARK  174  A    between atoms: _409  and  _412
REMARK  175  A    between atoms: _412  and  _413
REMARK  176  A    between atoms: _419  and  _421
REMARK  177  A    between atoms: _421  and  _422
REMARK  178  A    between atoms: _421  and  _424
REMARK  179  A    between atoms: _424  and  _425
REMARK  180  A    between atoms: _428  and  _430
REMARK  181  A    between atoms: _430  and  _431
REMARK  182  A    between atoms: _434  and  _436
REMARK  183  A    between atoms: _436  and  _437
REMARK  184  A    between atoms: _436  and  _439
REMARK  185  A    between atoms: _439  and  _440
REMARK  186  A    between atoms: _443  and  _445
REMARK  187  A    between atoms: _445  and  _446
REMARK  188  A    between atoms: _445  and  _448
REMARK  189  A    between atoms: _448  and  _449
REMARK  190  A    between atoms: _452  and  _454
REMARK  191  A    between atoms: _454  and  _455
REMARK  192  A    between atoms: _457  and  _459
REMARK  193  A    between atoms: _459  and  _460
REMARK  194  A    between atoms: _459  and  _462
REMARK  195  A    between atoms: _462  and  _463
REMARK  196  A    between atoms: _466  and  _468
REMARK  197  A    between atoms: _468  and  _469
REMARK  198  A    between atoms: _468  and  _471
REMARK  199  A    between atoms: _471  and  _472
REMARK  200  A    between atoms: _475  and  _477
REMARK  201  A    between atoms: _477  and  _478
REMARK  202  A    between atoms: _477  and  _480
REMARK  203  A    between atoms: _480  and  _481
REMARK  204  A    between atoms: _484  and  _486
REMARK  205  A    between atoms: _486  and  _487
REMARK  206  A    between atoms: _486  and  _489
REMARK  207  A    between atoms: _489  and  _490
REMARK  208  A    between atoms: _495  and  _496
REMARK  209  A    between atoms: _498  and  _500
REMARK  210  A    between atoms: _500  and  _501
REMARK  211  A    between atoms: _500  and  _503
REMARK  212  A    between atoms: _503  and  _504
REMARK  213  A    between atoms: _510  and  _512
REMARK  214  A    between atoms: _512  and  _513
REMARK  215  A    between atoms: _515  and  _517
REMARK  216  A    between atoms: _517  and  _518
REMARK  217  A    between atoms: _517  and  _520
REMARK  218  A    between atoms: _520  and  _521
REMARK  219  A    between atoms: _524  and  _526
REMARK  220  A    between atoms: _526  and  _527
REMARK  221  A    between atoms: _529  and  _531
REMARK  222  A    between atoms: _531  and  _532
REMARK  223  A    between atoms: _531  and  _534
REMARK  224  A    between atoms: _534  and  _535
REMARK  225  A    between atoms: _538  and  _540
REMARK  226  A    between atoms: _540  and  _541
REMARK  227  A    between atoms: _540  and  _543
REMARK  228  A    between atoms: _543  and  _544
REMARK  229  A    between atoms: _549  and  _551
REMARK  230  A    between atoms: _551  and  _552
REMARK  231  A    between atoms: _551  and  _554
REMARK  232  A    between atoms: _554  and  _555
REMARK  233  A    between atoms: _558  and  _560
REMARK  234  A    between atoms: _560  and  _561
REMARK  235  A    between atoms: _563  and  _565
REMARK  236  A    between atoms: _565  and  _566
REMARK  237  A    between atoms: _565  and  _568
REMARK  238  A    between atoms: _568  and  _569
REMARK                            x       y       z     vdW  Elec       q    Type
REMARK                         _______ _______ _______ _____ _____    ______ ____
ROOT
ATOM      1  O   HOH     1       8.027  13.408  13.625  0.00  0.00    +0.000 OA
ENDROOT
TORSDOF 0
REMARK  Name = ../refined-set-2016/3prs/3prs_pocket.pdb
REMARK  238 active torsions:
REMARK  status: ('A' for Active; 'I' for Inactive)
REMARK    1  A    between atoms: _1  and  _3
REMARK    2  A    between atoms: _3  and  _4
REMARK    3  A    between atoms: _3  and  _6
REMARK    4  A    between atoms: _6  and  _7
REMARK    5  A    between atoms: _10  and  _12
REMARK    6  A    between atoms: _12  and  _13
REMARK    7  A    between atoms: _12  and  _15
REMARK    8  A    between atoms: _15  and  _16
REMARK    9  A    between atoms: _19  and  _21
REMARK   10  A    between atoms: _21  and  _22
REMARK   11  A    between atoms: _21  and  _24
REMARK   12  A    between atoms: _24  and  _25
REMARK   13  A    between atoms: _28  and  _30
REMARK   14  A    between atoms: _30  and  _31
REMARK   15  A    between atoms: _30  and  _33
REMARK   16  A    between atoms: _33  and  _34
REMARK   17  A    between atoms: _37  and  _39
REMARK   18  A    between atoms: _39  and  _40
REMARK   19  A    between atoms: _39  and  _42
REMARK   20  A    between atoms: _42  and  _43
REMARK   21  A    between atoms: _46  and  _48
REMARK   22  A    between atoms: _48  and  _49
REMARK   23  A    between atoms: _52  and  _54
REMARK   24  A    between atoms: _54  and  _55
REMARK   25  A    between atoms: _54  and  _57
REMARK   26  A    between atoms: _57  and  _58
REMARK   27  A    between atoms: _63  and  _64
REMARK   28  A    between atoms: _66  and  _68
REMARK   29  A    between atoms: _68  and  _69
REMARK   30  A    between atoms: _68  and  _71
REMARK   31  A    between atoms: _71  and  _72
REMARK   32  A    between atoms: _75  and  _77
REMARK   33  A    between atoms: _77  and  _78
REMARK   34  A    between atoms: _77  and  _80
REMARK   35  A    between atoms: _80  and  _81
REMARK   36  A    between atoms: _87  and  _89
REMARK   37  A    between atoms: _89  and  _90
REMARK   38  A    between atoms: _89  and  _92
REMARK   39  A    between atoms: _92  and  _93
REMARK   40  A    between atoms: _96  and  _98
REMARK   41  A    between atoms: _98  and  _99
REMARK   42  A    between atoms: _98  and  _101
REMARK   43  A    between atoms: _101  and  _102
REMARK   44  A    between atoms: _105  and  _107
REMARK   45  A    between atoms: _107  and  _108
REMARK   46  A    between atoms: _110  and  _112
REMARK   47  A    between atoms: _112  and  _113
REMARK   48  A    between atoms: _112  and  _115
REMARK   49  A    between atoms: _115  and  _116
REMARK   50  A    between atoms: _118  and  _120
REMARK   51  A    between atoms: _120  and  _121
REMARK   52  A    between atoms: _120  and  _123
REMARK   53  A    between atoms: _123  and  _124
REMARK   54  A    between atoms: _126  and  _128
REMARK   55  A    between atoms: _128  and  _129
REMARK   56  A    between atoms: _128  and  _131
REMARK   57  A    between atoms: _131  and  _132
REMARK   58  A    between atoms: _135  and  _137
REMARK   59  A    between atoms: _137  and  _138
REMARK   60  A    between atoms: _137  and  _140
REMARK   61  A    between atoms: _140  and  _141
REMARK   62  A    between atoms: _151  and  _153
REMARK   63  A    between atoms: _153  and  _154
REMARK   64  A    between atoms: _153  and  _156
REMARK   65  A    between atoms: _156  and  _157
REMARK   66  A    between atoms: _159  and  _161
REMARK   67  A    between atoms: _161  and  _162
REMARK   68  A    between atoms: _161  and  _164
REMARK   69  A    between atoms: _164  and  _165
REMARK   70  A    between atoms: _168  and  _170
REMARK   71  A    between atoms: _170  and  _171
REMARK   72  A    between atoms: _170  and  _173
REMARK   73  A    between atoms: _173  and  _174
REMARK   74  A    between atoms: _176  and  _178
REMARK   75  A    between atoms: _178  and  _179
REMARK   76  A    between atoms: _178  and  _181
REMARK   77  A    between atoms: _181  and  _182
REMARK   78  A    between atoms: _187  and  _188
REMARK   79  A    between atoms: _190  and  _192
REMARK   80  A    between atoms: _192  and  _193
REMARK   81  A    between atoms: _195  and  _197
REMARK   82  A    between atoms: _197  and  _198
REMARK   83  A    between atoms: _197  and  _200
REMARK   84  A    between atoms: _200  and  _201
REMARK   85  A    between atoms: _204  and  _206
REMARK   86  A    between atoms: _206  and  _207
REMARK   87  A    between atoms: _209  and  _211
REMARK   88  A    between atoms: _211  and  _212
REMARK   89  A    between atoms: _211  and  _214
REMARK   90  A    between atoms: _214  and  _215
REMARK   91  A    between atoms: _217  and  _219
REMARK   92  A    between atoms: _219  and  _220
REMARK   93  A    between atoms: _219  and  _222
REMARK   94  A    between atoms: _222  and  _223
REMARK   95  A    between atoms: _225  and  _227
REMARK   96  A    between atoms: _227  and  _228
REMARK   97  A    between atoms: _227  and  _230
REMARK   98  A    between atoms: _230  and  _231
REMARK   99  A    between atoms: _233  and  _235
REMARK  100  A    between atoms: _235  and  _236
REMARK  101  A    between atoms: _235  and  _238
REMARK  102  A    between atoms: _238  and  _239
REMARK  103  A    between atoms: _245  and  _247
REMARK  104  A    between atoms: _247  and  _248
REMARK  105  A    between atoms: _247  and  _250
REMARK  106  A    between atoms: _250  and  _251
REMARK  107  A    between atoms: _251  and  _252
REMARK  108  A    between atoms: _255  and  _257
REMARK  109  A    between atoms: _257  and  _258
REMARK  110  A    between atoms: _257  and  _260
REMARK  111  A    between atoms: _260  and  _261
REMARK  112  A    between atoms: _264  and  _266
REMARK  113  A    between atoms: _266  and  _267
REMARK  114  A    between atoms: _266  and  _269
REMARK  115  A    between atoms: _269  and  _270
REMARK  116  A    between atoms: _272  and  _274
REMARK  117  A    between atoms: _274  and  _275
REMARK  118  A    between atoms: _274  and  _277
REMARK  119  A    between atoms: _277  and  _278
REMARK  120  A    between atoms: _281  and  _283
REMARK  121  A    between atoms: _283  and  _284
REMARK  122  A    between atoms: _283  and  _286
REMARK  123  A    between atoms: _286  and  _287
REMARK  124  A    between atoms: _290  and  _292
REMARK  125  A    between atoms: _292  and  _293
REMARK  126  A    between atoms: _295  and  _297
REMARK  127  A    between atoms: _297  and  _298
REMARK  128  A    between atoms: _297  and  _300
REMARK  129  A    between atoms: _300  and  _301
REMARK  130  A    between atoms: _304  and  _306
REMARK  131  A    between atoms: _306  and  _307
REMARK  132  A    between atoms: _306  and  _309
REMARK  133  A    between atoms: _309  and  _310
REMARK  134  A    between atoms: _313  and  _315
REMARK  135  A    between atoms: _315  and  _316
REMARK  136  A    between atoms: _315  and  _318
REMARK  137  A    between atoms: _318  and  _319
REMARK  138  A    between atoms: _322  and  _324
REMARK  139  A    between atoms: _324  and  _325
REMARK  140  A    between atoms: _328  and  _330
REMARK  141  A    between atoms: _330  and  _331
REMARK  142  A    between atoms: _330  and  _333
REMARK  143  A    between atoms: _333  and  _334
REMARK  144  A    between atoms: _340  and  _342
REMARK  145  A    between atoms: _342  and  _343
REMARK  146  A    between atoms: _342  and  _345
REMARK  147  A    between atoms: _345  and  _346
REMARK  148  A    between atoms: _349  and  _351
REMARK  149  A    between atoms: _351  and  _352
REMARK  150  A    between atoms: _351  and  _354
REMARK  151  A    between atoms: _354  and  _355
REMARK  152  A    between atoms: _358  and  _360
REMARK  153  A    between atoms: _360  and  _361
REMARK  154  A    between atoms: _360  and  _363
REMARK  155  A    between atoms: _363  and  _364
REMARK  156  A    between atoms: _369  and  _371
REMARK  157  A    between atoms: _371  and  _372
REMARK  158  A    between atoms: _371  and  _374
REMARK  159  A    between atoms: _374  and  _375
REMARK  160  A    between atoms: _378  and  _380
REMARK  161  A    between atoms: _380  and  _381
REMARK  162  A    between atoms: _380  and  _383
REMARK  163  A    between atoms: _383  and  _384
REMARK  164  A    between atoms: _384  and  _385
REMARK  165  A    between atoms: _390  and  _392
REMARK  166  A    between atoms: _392  and  _393
REMARK  167  A    between atoms: _392  and  _395
REMARK  168  A    between atoms: _395  and  _396
REMARK  169  A    between atoms: _396  and  _397
REMARK  170  A    between atoms: _402  and  _404
REMARK  171  A    between atoms: _404  and  _405
REMARK  172  A    between atoms: _407  and  _409
REMARK  173  A    between atoms: _409  and  _410
REMARK  174  A    between atoms: _409  and  _412
REMARK  175  A    between atoms: _412  and  _413
REMARK  176  A    between atoms: _419  and  _421
REMARK  177  A    between atoms: _421  and  _422
REMARK  178  A    between atoms: _421  and  _424
REMARK  179  A    between atoms: _424  and  _425
REMARK  180  A    between atoms: _428  and  _430
REMARK  181  A    between atoms: _430  and  _431
REMARK  182  A    between atoms: _434  and  _436
REMARK  183  A    between atoms: _436  and  _437
REMARK  184  A    between atoms: _436  and  _439
REMARK  185  A    between atoms: _439  and  _440
REMARK  186  A    between atoms: _443  and  _445
REMARK  187  A    between atoms: _445  and  _446
REMARK  188  A    between atoms: _445  and  _448
REMARK  189  A    between atoms: _448  and  _449
REMARK  190  A    between atoms: _452  and  _454
REMARK  191  A    between atoms: _454  and  _455
REMARK  192  A    between atoms: _457  and  _459
REMARK  193  A    between atoms: _459  and  _460
REMARK  194  A    between atoms: _459  and  _462
REMARK  195  A    between atoms: _462  and  _463
REMARK  196  A    between atoms: _466  and  _468
REMARK  197  A    between atoms: _468  and  _469
REMARK  198  A    between atoms: _468  and  _471
REMARK  199  A    between atoms: _471  and  _472
REMARK  200  A    between atoms: _475  and  _477
REMARK  201  A    between atoms: _477  and  _478
REMARK  202  A    between atoms: _477  and  _480
REMARK  203  A    between atoms: _480  and  _481
REMARK  204  A    between atoms: _484  and  _486
REMARK  205  A    between atoms: _486  and  _487
REMARK  206  A    between atoms: _486  and  _489
REMARK  207  A    between atoms: _489  and  _490
REMARK  208  A    between atoms: _495  and  _496
REMARK  209  A    between atoms: _498  and  _500
REMARK  210  A    between atoms: _500  and  _501
REMARK  211  A    between atoms: _500  and  _503
REMARK  212  A    between atoms: _503  and  _504
REMARK  213  A    between atoms: _510  and  _512
REMARK  214  A    between atoms: _512  and  _513
REMARK  215  A    between atoms: _515  and  _517
REMARK  216  A    between atoms: _517  and  _518
REMARK  217  A    between atoms: _517  and  _520
REMARK  218  A    between atoms: _520  and  _521
REMARK  219  A    between atoms: _524  and  _526
REMARK  220  A    between atoms: _526  and  _527
REMARK  221  A    between atoms: _529  and  _531
REMARK  222  A    between atoms: _531  and  _532
REMARK  223  A    between atoms: _531  and  _534
REMARK  224  A    between atoms: _534  and  _535
REMARK  225  A    between atoms: _538  and  _540
REMARK  226  A    between atoms: _540  and  _541
REMARK  227  A    between atoms: _540  and  _543
REMARK  228  A    between atoms: _543  and  _544
REMARK  229  A    between atoms: _549  and  _551
REMARK  230  A    between atoms: _551  and  _552
REMARK  231  A    between atoms: _551  and  _554
REMARK  232  A    between atoms: _554  and  _555
REMARK  233  A    between atoms: _558  and  _560
REMARK  234  A    between atoms: _560  and  _561
REMARK  235  A    between atoms: _563  and  _565
REMARK  236  A    between atoms: _565  and  _566
REMARK  237  A    between atoms: _565  and  _568
REMARK  238  A    between atoms: _568  and  _569
REMARK                            x       y       z     vdW  Elec       q    Type
REMARK                         _______ _______ _______ _____ _____    ______ ____
ROOT
ATOM      1  O   HOH     1      -1.465  13.604   9.687  0.00  0.00    +0.000 OA
ENDROOT
TORSDOF 0
REMARK  Name = ../refined-set-2016/3prs/3prs_pocket.pdb
REMARK  238 active torsions:
REMARK  status: ('A' for Active; 'I' for Inactive)
REMARK    1  A    between atoms: _1  and  _3
REMARK    2  A    between atoms: _3  and  _4
REMARK    3  A    between atoms: _3  and  _6
REMARK    4  A    between atoms: _6  and  _7
REMARK    5  A    between atoms: _10  and  _12
REMARK    6  A    between atoms: _12  and  _13
REMARK    7  A    between atoms: _12  and  _15
REMARK    8  A    between atoms: _15  and  _16
REMARK    9  A    between atoms: _19  and  _21
REMARK   10  A    between atoms: _21  and  _22
REMARK   11  A    between atoms: _21  and  _24
REMARK   12  A    between atoms: _24  and  _25
REMARK   13  A    between atoms: _28  and  _30
REMARK   14  A    between atoms: _30  and  _31
REMARK   15  A    between atoms: _30  and  _33
REMARK   16  A    between atoms: _33  and  _34
REMARK   17  A    between atoms: _37  and  _39
REMARK   18  A    between atoms: _39  and  _40
REMARK   19  A    between atoms: _39  and  _42
REMARK   20  A    between atoms: _42  and  _43
REMARK   21  A    between atoms: _46  and  _48
REMARK   22  A    between atoms: _48  and  _49
REMARK   23  A    between atoms: _52  and  _54
REMARK   24  A    between atoms: _54  and  _55
REMARK   25  A    between atoms: _54  and  _57
REMARK   26  A    between atoms: _57  and  _58
REMARK   27  A    between atoms: _63  and  _64
REMARK   28  A    between atoms: _66  and  _68
REMARK   29  A    between atoms: _68  and  _69
REMARK   30  A    between atoms: _68  and  _71
REMARK   31  A    between atoms: _71  and  _72
REMARK   32  A    between atoms: _75  and  _77
REMARK   33  A    between atoms: _77  and  _78
REMARK   34  A    between atoms: _77  and  _80
REMARK   35  A    between atoms: _80  and  _81
REMARK   36  A    between atoms: _87  and  _89
REMARK   37  A    between atoms: _89  and  _90
REMARK   38  A    between atoms: _89  and  _92
REMARK   39  A    between atoms: _92  and  _93
REMARK   40  A    between atoms: _96  and  _98
REMARK   41  A    between atoms: _98  and  _99
REMARK   42  A    between atoms: _98  and  _101
REMARK   43  A    between atoms: _101  and  _102
REMARK   44  A    between atoms: _105  and  _107
REMARK   45  A    between atoms: _107  and  _108
REMARK   46  A    between atoms: _110  and  _112
REMARK   47  A    between atoms: _112  and  _113
REMARK   48  A    between atoms: _112  and  _115
REMARK   49  A    between atoms: _115  and  _116
REMARK   50  A    between atoms: _118  and  _120
REMARK   51  A    between atoms: _120  and  _121
REMARK   52  A    between atoms: _120  and  _123
REMARK   53  A    between atoms: _123  and  _124
REMARK   54  A    between atoms: _126  and  _128
REMARK   55  A    between atoms: _128  and  _129
REMARK   56  A    between atoms: _128  and  _131
REMARK   57  A    between atoms: _131  and  _132
REMARK   58  A    between atoms: _135  and  _137
REMARK   59  A    between atoms: _137  and  _138
REMARK   60  A    between atoms: _137  and  _140
REMARK   61  A    between atoms: _140  and  _141
REMARK   62  A    between atoms: _151  and  _153
REMARK   63  A    between atoms: _153  and  _154
REMARK   64  A    between atoms: _153  and  _156
REMARK   65  A    between atoms: _156  and  _157
REMARK   66  A    between atoms: _159  and  _161
REMARK   67  A    between atoms: _161  and  _162
REMARK   68  A    between atoms: _161  and  _164
REMARK   69  A    between atoms: _164  and  _165
REMARK   70  A    between atoms: _168  and  _170
REMARK   71  A    between atoms: _170  and  _171
REMARK   72  A    between atoms: _170  and  _173
REMARK   73  A    between atoms: _173  and  _174
REMARK   74  A    between atoms: _176  and  _178
REMARK   75  A    between atoms: _178  and  _179
REMARK   76  A    between atoms: _178  and  _181
REMARK   77  A    between atoms: _181  and  _182
REMARK   78  A    between atoms: _187  and  _188
REMARK   79  A    between atoms: _190  and  _192
REMARK   80  A    between atoms: _192  and  _193
REMARK   81  A    between atoms: _195  and  _197
REMARK   82  A    between atoms: _197  and  _198
REMARK   83  A    between atoms: _197  and  _200
REMARK   84  A    between atoms: _200  and  _201
REMARK   85  A    between atoms: _204  and  _206
REMARK   86  A    between atoms: _206  and  _207
REMARK   87  A    between atoms: _209  and  _211
REMARK   88  A    between atoms: _211  and  _212
REMARK   89  A    between atoms: _211  and  _214
REMARK   90  A    between atoms: _214  and  _215
REMARK   91  A    between atoms: _217  and  _219
REMARK   92  A    between atoms: _219  and  _220
REMARK   93  A    between atoms: _219  and  _222
REMARK   94  A    between atoms: _222  and  _223
REMARK   95  A    between atoms: _225  and  _227
REMARK   96  A    between atoms: _227  and  _228
REMARK   97  A    between atoms: _227  and  _230
REMARK   98  A    between atoms: _230  and  _231
REMARK   99  A    between atoms: _233  and  _235
REMARK  100  A    between atoms: _235  and  _236
REMARK  101  A    between atoms: _235  and  _238
REMARK  102  A    between atoms: _238  and  _239
REMARK  103  A    between atoms: _245  and  _247
REMARK  104  A    between atoms: _247  and  _248
REMARK  105  A    between atoms: _247  and  _250
REMARK  106  A    between atoms: _250  and  _251
REMARK  107  A    between atoms: _251  and  _252
REMARK  108  A    between atoms: _255  and  _257
REMARK  109  A    between atoms: _257  and  _258
REMARK  110  A    between atoms: _257  and  _260
REMARK  111  A    between atoms: _260  and  _261
REMARK  112  A    between atoms: _264  and  _266
REMARK  113  A    between atoms: _266  and  _267
REMARK  114  A    between atoms: _266  and  _269
REMARK  115  A    between atoms: _269  and  _270
REMARK  116  A    between atoms: _272  and  _274
REMARK  117  A    between atoms: _274  and  _275
REMARK  118  A    between atoms: _274  and  _277
REMARK  119  A    between atoms: _277  and  _278
REMARK  120  A    between atoms: _281  and  _283
REMARK  121  A    between atoms: _283  and  _284
REMARK  122  A    between atoms: _283  and  _286
REMARK  123  A    between atoms: _286  and  _287
REMARK  124  A    between atoms: _290  and  _292
REMARK  125  A    between atoms: _292  and  _293
REMARK  126  A    between atoms: _295  and  _297
REMARK  127  A    between atoms: _297  and  _298
REMARK  128  A    between atoms: _297  and  _300
REMARK  129  A    between atoms: _300  and  _301
REMARK  130  A    between atoms: _304  and  _306
REMARK  131  A    between atoms: _306  and  _307
REMARK  132  A    between atoms: _306  and  _309
REMARK  133  A    between atoms: _309  and  _310
REMARK  134  A    between atoms: _313  and  _315
REMARK  135  A    between atoms: _315  and  _316
REMARK  136  A    between atoms: _315  and  _318
REMARK  137  A    between atoms: _318  and  _319
REMARK  138  A    between atoms: _322  and  _324
REMARK  139  A    between atoms: _324  and  _325
REMARK  140  A    between atoms: _328  and  _330
REMARK  141  A    between atoms: _330  and  _331
REMARK  142  A    between atoms: _330  and  _333
REMARK  143  A    between atoms: _333  and  _334
REMARK  144  A    between atoms: _340  and  _342
REMARK  145  A    between atoms: _342  and  _343
REMARK  146  A    between atoms: _342  and  _345
REMARK  147  A    between atoms: _345  and  _346
REMARK  148  A    between atoms: _349  and  _351
REMARK  149  A    between atoms: _351  and  _352
REMARK  150  A    between atoms: _351  and  _354
REMARK  151  A    between atoms: _354  and  _355
REMARK  152  A    between atoms: _358  and  _360
REMARK  153  A    between atoms: _360  and  _361
REMARK  154  A    between atoms: _360  and  _363
REMARK  155  A    between atoms: _363  and  _364
REMARK  156  A    between atoms: _369  and  _371
REMARK  157  A    between atoms: _371  and  _372
REMARK  158  A    between atoms: _371  and  _374
REMARK  159  A    between atoms: _374  and  _375
REMARK  160  A    between atoms: _378  and  _380
REMARK  161  A    between atoms: _380  and  _381
REMARK  162  A    between atoms: _380  and  _383
REMARK  163  A    between atoms: _383  and  _384
REMARK  164  A    between atoms: _384  and  _385
REMARK  165  A    between atoms: _390  and  _392
REMARK  166  A    between atoms: _392  and  _393
REMARK  167  A    between atoms: _392  and  _395
REMARK  168  A    between atoms: _395  and  _396
REMARK  169  A    between atoms: _396  and  _397
REMARK  170  A    between atoms: _402  and  _404
REMARK  171  A    between atoms: _404  and  _405
REMARK  172  A    between atoms: _407  and  _409
REMARK  173  A    between atoms: _409  and  _410
REMARK  174  A    between atoms: _409  and  _412
REMARK  175  A    between atoms: _412  and  _413
REMARK  176  A    between atoms: _419  and  _421
REMARK  177  A    between atoms: _421  and  _422
REMARK  178  A    between atoms: _421  and  _424
REMARK  179  A    between atoms: _424  and  _425
REMARK  180  A    between atoms: _428  and  _430
REMARK  181  A    between atoms: _430  and  _431
REMARK  182  A    between atoms: _434  and  _436
REMARK  183  A    between atoms: _436  and  _437
REMARK  184  A    between atoms: _436  and  _439
REMARK  185  A    between atoms: _439  and  _440
REMARK  186  A    between atoms: _443  and  _445
REMARK  187  A    between atoms: _445  and  _446
REMARK  188  A    between atoms: _445  and  _448
REMARK  189  A    between atoms: _448  and  _449
REMARK  190  A    between atoms: _452  and  _454
REMARK  191  A    between atoms: _454  and  _455
REMARK  192  A    between atoms: _457  and  _459
REMARK  193  A    between atoms: _459  and  _460
REMARK  194  A    between atoms: _459  and  _462
REMARK  195  A    between atoms: _462  and  _463
REMARK  196  A    between atoms: _466  and  _468
REMARK  197  A    between atoms: _468  and  _469
REMARK  198  A    between atoms: _468  and  _471
REMARK  199  A    between atoms: _471  and  _472
REMARK  200  A    between atoms: _475  and  _477
REMARK  201  A    between atoms: _477  and  _478
REMARK  202  A    between atoms: _477  and  _480
REMARK  203  A    between atoms: _480  and  _481
REMARK  204  A    between atoms: _484  and  _486
REMARK  205  A    between atoms: _486  and  _487
REMARK  206  A    between atoms: _486  and  _489
REMARK  207  A    between atoms: _489  and  _490
REMARK  208  A    between atoms: _495  and  _496
REMARK  209  A    between atoms: _498  and  _500
REMARK  210  A    between atoms: _500  and  _501
REMARK  211  A    between atoms: _500  and  _503
REMARK  212  A    between atoms: _503  and  _504
REMARK  213  A    between atoms: _510  and  _512
REMARK  214  A    between atoms: _512  and  _513
REMARK  215  A    between atoms: _515  and  _517
REMARK  216  A    between atoms: _517  and  _518
REMARK  217  A    between atoms: _517  and  _520
REMARK  218  A    between atoms: _520  and  _521
REMARK  219  A    between atoms: _524  and  _526
REMARK  220  A    between atoms: _526  and  _527
REMARK  221  A    between atoms: _529  and  _531
REMARK  222  A    between atoms: _531  and  _532
REMARK  223  A    between atoms: _531  and  _534
REMARK  224  A    between atoms: _534  and  _535
REMARK  225  A    between atoms: _538  and  _540
REMARK  226  A    between atoms: _540  and  _541
REMARK  227  A    between atoms: _540  and  _543
REMARK  228  A    between atoms: _543  and  _544
REMARK  229  A    between atoms: _549  and  _551
REMARK  230  A    between atoms: _551  and  _552
REMARK  231  A    between atoms: _551  and  _554
REMARK  232  A    between atoms: _554  and  _555
REMARK  233  A    between atoms: _558  and  _560
REMARK  234  A    between atoms: _560  and  _561
REMARK  235  A    between atoms: _563  and  _565
REMARK  236  A    between atoms: _565  and  _566
REMARK  237  A    between atoms: _565  and  _568
REMARK  238  A    between atoms: _568  and  _569
REMARK                            x       y       z     vdW  Elec       q    Type
REMARK                         _______ _______ _______ _____ _____    ______ ____
ROOT
ATOM      1  O   HOH     1     -10.166  -6.858   4.656  0.00  0.00    +0.000 OA
ENDROOT
TORSDOF 0
REMARK  Name = ../refined-set-2016/3prs/3prs_pocket.pdb
REMARK  238 active torsions:
REMARK  status: ('A' for Active; 'I' for Inactive)
REMARK    1  A    between atoms: _1  and  _3
REMARK    2  A    between atoms: _3  and  _4
REMARK    3  A    between atoms: _3  and  _6
REMARK    4  A    between atoms: _6  and  _7
REMARK    5  A    between atoms: _10  and  _12
REMARK    6  A    between atoms: _12  and  _13
REMARK    7  A    between atoms: _12  and  _15
REMARK    8  A    between atoms: _15  and  _16
REMARK    9  A    between atoms: _19  and  _21
REMARK   10  A    between atoms: _21  and  _22
REMARK   11  A    between atoms: _21  and  _24
REMARK   12  A    between atoms: _24  and  _25
REMARK   13  A    between atoms: _28  and  _30
REMARK   14  A    between atoms: _30  and  _31
REMARK   15  A    between atoms: _30  and  _33
REMARK   16  A    between atoms: _33  and  _34
REMARK   17  A    between atoms: _37  and  _39
REMARK   18  A    between atoms: _39  and  _40
REMARK   19  A    between atoms: _39  and  _42
REMARK   20  A    between atoms: _42  and  _43
REMARK   21  A    between atoms: _46  and  _48
REMARK   22  A    between atoms: _48  and  _49
REMARK   23  A    between atoms: _52  and  _54
REMARK   24  A    between atoms: _54  and  _55
REMARK   25  A    between atoms: _54  and  _57
REMARK   26  A    between atoms: _57  and  _58
REMARK   27  A    between atoms: _63  and  _64
REMARK   28  A    between atoms: _66  and  _68
REMARK   29  A    between atoms: _68  and  _69
REMARK   30  A    between atoms: _68  and  _71
REMARK   31  A    between atoms: _71  and  _72
REMARK   32  A    between atoms: _75  and  _77
REMARK   33  A    between atoms: _77  and  _78
REMARK   34  A    between atoms: _77  and  _80
REMARK   35  A    between atoms: _80  and  _81
REMARK   36  A    between atoms: _87  and  _89
REMARK   37  A    between atoms: _89  and  _90
REMARK   38  A    between atoms: _89  and  _92
REMARK   39  A    between atoms: _92  and  _93
REMARK   40  A    between atoms: _96  and  _98
REMARK   41  A    between atoms: _98  and  _99
REMARK   42  A    between atoms: _98  and  _101
REMARK   43  A    between atoms: _101  and  _102
REMARK   44  A    between atoms: _105  and  _107
REMARK   45  A    between atoms: _107  and  _108
REMARK   46  A    between atoms: _110  and  _112
REMARK   47  A    between atoms: _112  and  _113
REMARK   48  A    between atoms: _112  and  _115
REMARK   49  A    between atoms: _115  and  _116
REMARK   50  A    between atoms: _118  and  _120
REMARK   51  A    between atoms: _120  and  _121
REMARK   52  A    between atoms: _120  and  _123
REMARK   53  A    between atoms: _123  and  _124
REMARK   54  A    between atoms: _126  and  _128
REMARK   55  A    between atoms: _128  and  _129
REMARK   56  A    between atoms: _128  and  _131
REMARK   57  A    between atoms: _131  and  _132
REMARK   58  A    between atoms: _135  and  _137
REMARK   59  A    between atoms: _137  and  _138
REMARK   60  A    between atoms: _137  and  _140
REMARK   61  A    between atoms: _140  and  _141
REMARK   62  A    between atoms: _151  and  _153
REMARK   63  A    between atoms: _153  and  _154
REMARK   64  A    between atoms: _153  and  _156
REMARK   65  A    between atoms: _156  and  _157
REMARK   66  A    between atoms: _159  and  _161
REMARK   67  A    between atoms: _161  and  _162
REMARK   68  A    between atoms: _161  and  _164
REMARK   69  A    between atoms: _164  and  _165
REMARK   70  A    between atoms: _168  and  _170
REMARK   71  A    between atoms: _170  and  _171
REMARK   72  A    between atoms: _170  and  _173
REMARK   73  A    between atoms: _173  and  _174
REMARK   74  A    between atoms: _176  and  _178
REMARK   75  A    between atoms: _178  and  _179
REMARK   76  A    between atoms: _178  and  _181
REMARK   77  A    between atoms: _181  and  _182
REMARK   78  A    between atoms: _187  and  _188
REMARK   79  A    between atoms: _190  and  _192
REMARK   80  A    between atoms: _192  and  _193
REMARK   81  A    between atoms: _195  and  _197
REMARK   82  A    between atoms: _197  and  _198
REMARK   83  A    between atoms: _197  and  _200
REMARK   84  A    between atoms: _200  and  _201
REMARK   85  A    between atoms: _204  and  _206
REMARK   86  A    between atoms: _206  and  _207
REMARK   87  A    between atoms: _209  and  _211
REMARK   88  A    between atoms: _211  and  _212
REMARK   89  A    between atoms: _211  and  _214
REMARK   90  A    between atoms: _214  and  _215
REMARK   91  A    between atoms: _217  and  _219
REMARK   92  A    between atoms: _219  and  _220
REMARK   93  A    between atoms: _219  and  _222
REMARK   94  A    between atoms: _222  and  _223
REMARK   95  A    between atoms: _225  and  _227
REMARK   96  A    between atoms: _227  and  _228
REMARK   97  A    between atoms: _227  and  _230
REMARK   98  A    between atoms: _230  and  _231
REMARK   99  A    between atoms: _233  and  _235
REMARK  100  A    between atoms: _235  and  _236
REMARK  101  A    between atoms: _235  and  _238
REMARK  102  A    between atoms: _238  and  _239
REMARK  103  A    between atoms: _245  and  _247
REMARK  104  A    between atoms: _247  and  _248
REMARK  105  A    between atoms: _247  and  _250
REMARK  106  A    between atoms: _250  and  _251
REMARK  107  A    between atoms: _251  and  _252
REMARK  108  A    between atoms: _255  and  _257
REMARK  109  A    between atoms: _257  and  _258
REMARK  110  A    between atoms: _257  and  _260
REMARK  111  A    between atoms: _260  and  _261
REMARK  112  A    between atoms: _264  and  _266
REMARK  113  A    between atoms: _266  and  _267
REMARK  114  A    between atoms: _266  and  _269
REMARK  115  A    between atoms: _269  and  _270
REMARK  116  A    between atoms: _272  and  _274
REMARK  117  A    between atoms: _274  and  _275
REMARK  118  A    between atoms: _274  and  _277
REMARK  119  A    between atoms: _277  and  _278
REMARK  120  A    between atoms: _281  and  _283
REMARK  121  A    between atoms: _283  and  _284
REMARK  122  A    between atoms: _283  and  _286
REMARK  123  A    between atoms: _286  and  _287
REMARK  124  A    between atoms: _290  and  _292
REMARK  125  A    between atoms: _292  and  _293
REMARK  126  A    between atoms: _295  and  _297
REMARK  127  A    between atoms: _297  and  _298
REMARK  128  A    between atoms: _297  and  _300
REMARK  129  A    between atoms: _300  and  _301
REMARK  130  A    between atoms: _304  and  _306
REMARK  131  A    between atoms: _306  and  _307
REMARK  132  A    between atoms: _306  and  _309
REMARK  133  A    between atoms: _309  and  _310
REMARK  134  A    between atoms: _313  and  _315
REMARK  135  A    between atoms: _315  and  _316
REMARK  136  A    between atoms: _315  and  _318
REMARK  137  A    between atoms: _318  and  _319
REMARK  138  A    between atoms: _322  and  _324
REMARK  139  A    between atoms: _324  and  _325
REMARK  140  A    between atoms: _328  and  _330
REMARK  141  A    between atoms: _330  and  _331
REMARK  142  A    between atoms: _330  and  _333
REMARK  143  A    between atoms: _333  and  _334
REMARK  144  A    between atoms: _340  and  _342
REMARK  145  A    between atoms: _342  and  _343
REMARK  146  A    between atoms: _342  and  _345
REMARK  147  A    between atoms: _345  and  _346
REMARK  148  A    between atoms: _349  and  _351
REMARK  149  A    between atoms: _351  and  _352
REMARK  150  A    between atoms: _351  and  _354
REMARK  151  A    between atoms: _354  and  _355
REMARK  152  A    between atoms: _358  and  _360
REMARK  153  A    between atoms: _360  and  _361
REMARK  154  A    between atoms: _360  and  _363
REMARK  155  A    between atoms: _363  and  _364
REMARK  156  A    between atoms: _369  and  _371
REMARK  157  A    between atoms: _371  and  _372
REMARK  158  A    between atoms: _371  and  _374
REMARK  159  A    between atoms: _374  and  _375
REMARK  160  A    between atoms: _378  and  _380
REMARK  161  A    between atoms: _380  and  _381
REMARK  162  A    between atoms: _380  and  _383
REMARK  163  A    between atoms: _383  and  _384
REMARK  164  A    between atoms: _384  and  _385
REMARK  165  A    between atoms: _390  and  _392
REMARK  166  A    between atoms: _392  and  _393
REMARK  167  A    between atoms: _392  and  _395
REMARK  168  A    between atoms: _395  and  _396
REMARK  169  A    between atoms: _396  and  _397
REMARK  170  A    between atoms: _402  and  _404
REMARK  171  A    between atoms: _404  and  _405
REMARK  172  A    between atoms: _407  and  _409
REMARK  173  A    between atoms: _409  and  _410
REMARK  174  A    between atoms: _409  and  _412
REMARK  175  A    between atoms: _412  and  _413
REMARK  176  A    between atoms: _419  and  _421
REMARK  177  A    between atoms: _421  and  _422
REMARK  178  A    between atoms: _421  and  _424
REMARK  179  A    between atoms: _424  and  _425
REMARK  180  A    between atoms: _428  and  _430
REMARK  181  A    between atoms: _430  and  _431
REMARK  182  A    between atoms: _434  and  _436
REMARK  183  A    between atoms: _436  and  _437
REMARK  184  A    between atoms: _436  and  _439
REMARK  185  A    between atoms: _439  and  _440
REMARK  186  A    between atoms: _443  and  _445
REMARK  187  A    between atoms: _445  and  _446
REMARK  188  A    between atoms: _445  and  _448
REMARK  189  A    between atoms: _448  and  _449
REMARK  190  A    between atoms: _452  and  _454
REMARK  191  A    between atoms: _454  and  _455
REMARK  192  A    between atoms: _457  and  _459
REMARK  193  A    between atoms: _459  and  _460
REMARK  194  A    between atoms: _459  and  _462
REMARK  195  A    between atoms: _462  and  _463
REMARK  196  A    between atoms: _466  and  _468
REMARK  197  A    between atoms: _468  and  _469
REMARK  198  A    between atoms: _468  and  _471
REMARK  199  A    between atoms: _471  and  _472
REMARK  200  A    between atoms: _475  and  _477
REMARK  201  A    between atoms: _477  and  _478
REMARK  202  A    between atoms: _477  and  _480
REMARK  203  A    between atoms: _480  and  _481
REMARK  204  A    between atoms: _484  and  _486
REMARK  205  A    between atoms: _486  and  _487
REMARK  206  A    between atoms: _486  and  _489
REMARK  207  A    between atoms: _489  and  _490
REMARK  208  A    between atoms: _495  and  _496
REMARK  209  A    between atoms: _498  and  _500
REMARK  210  A    between atoms: _500  and  _501
REMARK  211  A    between atoms: _500  and  _503
REMARK  212  A    between atoms: _503  and  _504
REMARK  213  A    between atoms: _510  and  _512
REMARK  214  A    between atoms: _512  and  _513
REMARK  215  A    between atoms: _515  and  _517
REMARK  216  A    between atoms: _517  and  _518
REMARK  217  A    between atoms: _517  and  _520
REMARK  218  A    between atoms: _520  and  _521
REMARK  219  A    between atoms: _524  and  _526
REMARK  220  A    between atoms: _526  and  _527
REMARK  221  A    between atoms: _529  and  _531
REMARK  222  A    between atoms: _531  and  _532
REMARK  223  A    between atoms: _531  and  _534
REMARK  224  A    between atoms: _534  and  _535
REMARK  225  A    between atoms: _538  and  _540
REMARK  226  A    between atoms: _540  and  _541
REMARK  227  A    between atoms: _540  and  _543
REMARK  228  A    between atoms: _543  and  _544
REMARK  229  A    between atoms: _549  and  _551
REMARK  230  A    between atoms: _551  and  _552
REMARK  231  A    between atoms: _551  and  _554
REMARK  232  A    between atoms: _554  and  _555
REMARK  233  A    between atoms: _558  and  _560
REMARK  234  A    between atoms: _560  and  _561
REMARK  235  A    between atoms: _563  and  _565
REMARK  236  A    between atoms: _565  and  _566
REMARK  237  A    between atoms: _565  and  _568
REMARK  238  A    between atoms: _568  and  _569
REMARK                            x       y       z     vdW  Elec       q    Type
REMARK                         _______ _______ _______ _____ _____    ______ ____
ROOT
ATOM      1  O   HOH     1       5.049   9.705  22.121  0.00  0.00    +0.000 OA
ENDROOT
TORSDOF 0
REMARK  Name = ../refined-set-2016/3prs/3prs_pocket.pdb
REMARK  238 active torsions:
REMARK  status: ('A' for Active; 'I' for Inactive)
REMARK    1  A    between atoms: _1  and  _3
REMARK    2  A    between atoms: _3  and  _4
REMARK    3  A    between atoms: _3  and  _6
REMARK    4  A    between atoms: _6  and  _7
REMARK    5  A    between atoms: _10  and  _12
REMARK    6  A    between atoms: _12  and  _13
REMARK    7  A    between atoms: _12  and  _15
REMARK    8  A    between atoms: _15  and  _16
REMARK    9  A    between atoms: _19  and  _21
REMARK   10  A    between atoms: _21  and  _22
REMARK   11  A    between atoms: _21  and  _24
REMARK   12  A    between atoms: _24  and  _25
REMARK   13  A    between atoms: _28  and  _30
REMARK   14  A    between atoms: _30  and  _31
REMARK   15  A    between atoms: _30  and  _33
REMARK   16  A    between atoms: _33  and  _34
REMARK   17  A    between atoms: _37  and  _39
REMARK   18  A    between atoms: _39  and  _40
REMARK   19  A    between atoms: _39  and  _42
REMARK   20  A    between atoms: _42  and  _43
REMARK   21  A    between atoms: _46  and  _48
REMARK   22  A    between atoms: _48  and  _49
REMARK   23  A    between atoms: _52  and  _54
REMARK   24  A    between atoms: _54  and  _55
REMARK   25  A    between atoms: _54  and  _57
REMARK   26  A    between atoms: _57  and  _58
REMARK   27  A    between atoms: _63  and  _64
REMARK   28  A    between atoms: _66  and  _68
REMARK   29  A    between atoms: _68  and  _69
REMARK   30  A    between atoms: _68  and  _71
REMARK   31  A    between atoms: _71  and  _72
REMARK   32  A    between atoms: _75  and  _77
REMARK   33  A    between atoms: _77  and  _78
REMARK   34  A    between atoms: _77  and  _80
REMARK   35  A    between atoms: _80  and  _81
REMARK   36  A    between atoms: _87  and  _89
REMARK   37  A    between atoms: _89  and  _90
REMARK   38  A    between atoms: _89  and  _92
REMARK   39  A    between atoms: _92  and  _93
REMARK   40  A    between atoms: _96  and  _98
REMARK   41  A    between atoms: _98  and  _99
REMARK   42  A    between atoms: _98  and  _101
REMARK   43  A    between atoms: _101  and  _102
REMARK   44  A    between atoms: _105  and  _107
REMARK   45  A    between atoms: _107  and  _108
REMARK   46  A    between atoms: _110  and  _112
REMARK   47  A    between atoms: _112  and  _113
REMARK   48  A    between atoms: _112  and  _115
REMARK   49  A    between atoms: _115  and  _116
REMARK   50  A    between atoms: _118  and  _120
REMARK   51  A    between atoms: _120  and  _121
REMARK   52  A    between atoms: _120  and  _123
REMARK   53  A    between atoms: _123  and  _124
REMARK   54  A    between atoms: _126  and  _128
REMARK   55  A    between atoms: _128  and  _129
REMARK   56  A    between atoms: _128  and  _131
REMARK   57  A    between atoms: _131  and  _132
REMARK   58  A    between atoms: _135  and  _137
REMARK   59  A    between atoms: _137  and  _138
REMARK   60  A    between atoms: _137  and  _140
REMARK   61  A    between atoms: _140  and  _141
REMARK   62  A    between atoms: _151  and  _153
REMARK   63  A    between atoms: _153  and  _154
REMARK   64  A    between atoms: _153  and  _156
REMARK   65  A    between atoms: _156  and  _157
REMARK   66  A    between atoms: _159  and  _161
REMARK   67  A    between atoms: _161  and  _162
REMARK   68  A    between atoms: _161  and  _164
REMARK   69  A    between atoms: _164  and  _165
REMARK   70  A    between atoms: _168  and  _170
REMARK   71  A    between atoms: _170  and  _171
REMARK   72  A    between atoms: _170  and  _173
REMARK   73  A    between atoms: _173  and  _174
REMARK   74  A    between atoms: _176  and  _178
REMARK   75  A    between atoms: _178  and  _179
REMARK   76  A    between atoms: _178  and  _181
REMARK   77  A    between atoms: _181  and  _182
REMARK   78  A    between atoms: _187  and  _188
REMARK   79  A    between atoms: _190  and  _192
REMARK   80  A    between atoms: _192  and  _193
REMARK   81  A    between atoms: _195  and  _197
REMARK   82  A    between atoms: _197  and  _198
REMARK   83  A    between atoms: _197  and  _200
REMARK   84  A    between atoms: _200  and  _201
REMARK   85  A    between atoms: _204  and  _206
REMARK   86  A    between atoms: _206  and  _207
REMARK   87  A    between atoms: _209  and  _211
REMARK   88  A    between atoms: _211  and  _212
REMARK   89  A    between atoms: _211  and  _214
REMARK   90  A    between atoms: _214  and  _215
REMARK   91  A    between atoms: _217  and  _219
REMARK   92  A    between atoms: _219  and  _220
REMARK   93  A    between atoms: _219  and  _222
REMARK   94  A    between atoms: _222  and  _223
REMARK   95  A    between atoms: _225  and  _227
REMARK   96  A    between atoms: _227  and  _228
REMARK   97  A    between atoms: _227  and  _230
REMARK   98  A    between atoms: _230  and  _231
REMARK   99  A    between atoms: _233  and  _235
REMARK  100  A    between atoms: _235  and  _236
REMARK  101  A    between atoms: _235  and  _238
REMARK  102  A    between atoms: _238  and  _239
REMARK  103  A    between atoms: _245  and  _247
REMARK  104  A    between atoms: _247  and  _248
REMARK  105  A    between atoms: _247  and  _250
REMARK  106  A    between atoms: _250  and  _251
REMARK  107  A    between atoms: _251  and  _252
REMARK  108  A    between atoms: _255  and  _257
REMARK  109  A    between atoms: _257  and  _258
REMARK  110  A    between atoms: _257  and  _260
REMARK  111  A    between atoms: _260  and  _261
REMARK  112  A    between atoms: _264  and  _266
REMARK  113  A    between atoms: _266  and  _267
REMARK  114  A    between atoms: _266  and  _269
REMARK  115  A    between atoms: _269  and  _270
REMARK  116  A    between atoms: _272  and  _274
REMARK  117  A    between atoms: _274  and  _275
REMARK  118  A    between atoms: _274  and  _277
REMARK  119  A    between atoms: _277  and  _278
REMARK  120  A    between atoms: _281  and  _283
REMARK  121  A    between atoms: _283  and  _284
REMARK  122  A    between atoms: _283  and  _286
REMARK  123  A    between atoms: _286  and  _287
REMARK  124  A    between atoms: _290  and  _292
REMARK  125  A    between atoms: _292  and  _293
REMARK  126  A    between atoms: _295  and  _297
REMARK  127  A    between atoms: _297  and  _298
REMARK  128  A    between atoms: _297  and  _300
REMARK  129  A    between atoms: _300  and  _301
REMARK  130  A    between atoms: _304  and  _306
REMARK  131  A    between atoms: _306  and  _307
REMARK  132  A    between atoms: _306  and  _309
REMARK  133  A    between atoms: _309  and  _310
REMARK  134  A    between atoms: _313  and  _315
REMARK  135  A    between atoms: _315  and  _316
REMARK  136  A    between atoms: _315  and  _318
REMARK  137  A    between atoms: _318  and  _319
REMARK  138  A    between atoms: _322  and  _324
REMARK  139  A    between atoms: _324  and  _325
REMARK  140  A    between atoms: _328  and  _330
REMARK  141  A    between atoms: _330  and  _331
REMARK  142  A    between atoms: _330  and  _333
REMARK  143  A    between atoms: _333  and  _334
REMARK  144  A    between atoms: _340  and  _342
REMARK  145  A    between atoms: _342  and  _343
REMARK  146  A    between atoms: _342  and  _345
REMARK  147  A    between atoms: _345  and  _346
REMARK  148  A    between atoms: _349  and  _351
REMARK  149  A    between atoms: _351  and  _352
REMARK  150  A    between atoms: _351  and  _354
REMARK  151  A    between atoms: _354  and  _355
REMARK  152  A    between atoms: _358  and  _360
REMARK  153  A    between atoms: _360  and  _361
REMARK  154  A    between atoms: _360  and  _363
REMARK  155  A    between atoms: _363  and  _364
REMARK  156  A    between atoms: _369  and  _371
REMARK  157  A    between atoms: _371  and  _372
REMARK  158  A    between atoms: _371  and  _374
REMARK  159  A    between atoms: _374  and  _375
REMARK  160  A    between atoms: _378  and  _380
REMARK  161  A    between atoms: _380  and  _381
REMARK  162  A    between atoms: _380  and  _383
REMARK  163  A    between atoms: _383  and  _384
REMARK  164  A    between atoms: _384  and  _385
REMARK  165  A    between atoms: _390  and  _392
REMARK  166  A    between atoms: _392  and  _393
REMARK  167  A    between atoms: _392  and  _395
REMARK  168  A    between atoms: _395  and  _396
REMARK  169  A    between atoms: _396  and  _397
REMARK  170  A    between atoms: _402  and  _404
REMARK  171  A    between atoms: _404  and  _405
REMARK  172  A    between atoms: _407  and  _409
REMARK  173  A    between atoms: _409  and  _410
REMARK  174  A    between atoms: _409  and  _412
REMARK  175  A    between atoms: _412  and  _413
REMARK  176  A    between atoms: _419  and  _421
REMARK  177  A    between atoms: _421  and  _422
REMARK  178  A    between atoms: _421  and  _424
REMARK  179  A    between atoms: _424  and  _425
REMARK  180  A    between atoms: _428  and  _430
REMARK  181  A    between atoms: _430  and  _431
REMARK  182  A    between atoms: _434  and  _436
REMARK  183  A    between atoms: _436  and  _437
REMARK  184  A    between atoms: _436  and  _439
REMARK  185  A    between atoms: _439  and  _440
REMARK  186  A    between atoms: _443  and  _445
REMARK  187  A    between atoms: _445  and  _446
REMARK  188  A    between atoms: _445  and  _448
REMARK  189  A    between atoms: _448  and  _449
REMARK  190  A    between atoms: _452  and  _454
REMARK  191  A    between atoms: _454  and  _455
REMARK  192  A    between atoms: _457  and  _459
REMARK  193  A    between atoms: _459  and  _460
REMARK  194  A    between atoms: _459  and  _462
REMARK  195  A    between atoms: _462  and  _463
REMARK  196  A    between atoms: _466  and  _468
REMARK  197  A    between atoms: _468  and  _469
REMARK  198  A    between atoms: _468  and  _471
REMARK  199  A    between atoms: _471  and  _472
REMARK  200  A    between atoms: _475  and  _477
REMARK  201  A    between atoms: _477  and  _478
REMARK  202  A    between atoms: _477  and  _480
REMARK  203  A    between atoms: _480  and  _481
REMARK  204  A    between atoms: _484  and  _486
REMARK  205  A    between atoms: _486  and  _487
REMARK  206  A    between atoms: _486  and  _489
REMARK  207  A    between atoms: _489  and  _490
REMARK  208  A    between atoms: _495  and  _496
REMARK  209  A    between atoms: _498  and  _500
REMARK  210  A    between atoms: _500  and  _501
REMARK  211  A    between atoms: _500  and  _503
REMARK  212  A    between atoms: _503  and  _504
REMARK  213  A    between atoms: _510  and  _512
REMARK  214  A    between atoms: _512  and  _513
REMARK  215  A    between atoms: _515  and  _517
REMARK  216  A    between atoms: _517  and  _518
REMARK  217  A    between atoms: _517  and  _520
REMARK  218  A    between atoms: _520  and  _521
REMARK  219  A    between atoms: _524  and  _526
REMARK  220  A    between atoms: _526  and  _527
REMARK  221  A    between atoms: _529  and  _531
REMARK  222  A    between atoms: _531  and  _532
REMARK  223  A    between atoms: _531  and  _534
REMARK  224  A    between atoms: _534  and  _535
REMARK  225  A    between atoms: _538  and  _540
REMARK  226  A    between atoms: _540  and  _541
REMARK  227  A    between atoms: _540  and  _543
REMARK  228  A    between atoms: _543  and  _544
REMARK  229  A    between atoms: _549  and  _551
REMARK  230  A    between atoms: _551  and  _552
REMARK  231  A    between atoms: _551  and  _554
REMARK  232  A    between atoms: _554  and  _555
REMARK  233  A    between atoms: _558  and  _560
REMARK  234  A    between atoms: _560  and  _561
REMARK  235  A    between atoms: _563  and  _565
REMARK  236  A    between atoms: _565  and  _566
REMARK  237  A    between atoms: _565  and  _568
REMARK  238  A    between atoms: _568  and  _569
REMARK                            x       y       z     vdW  Elec       q    Type
REMARK                         _______ _______ _______ _____ _____    ______ ____
ROOT
ATOM      1  O   HOH     1     -11.073  -2.941   1.742  0.00  0.00    +0.000 OA
ENDROOT
TORSDOF 0
REMARK  Name = ../refined-set-2016/3prs/3prs_pocket.pdb
REMARK  238 active torsions:
REMARK  status: ('A' for Active; 'I' for Inactive)
REMARK    1  A    between atoms: _1  and  _3
REMARK    2  A    between atoms: _3  and  _4
REMARK    3  A    between atoms: _3  and  _6
REMARK    4  A    between atoms: _6  and  _7
REMARK    5  A    between atoms: _10  and  _12
REMARK    6  A    between atoms: _12  and  _13
REMARK    7  A    between atoms: _12  and  _15
REMARK    8  A    between atoms: _15  and  _16
REMARK    9  A    between atoms: _19  and  _21
REMARK   10  A    between atoms: _21  and  _22
REMARK   11  A    between atoms: _21  and  _24
REMARK   12  A    between atoms: _24  and  _25
REMARK   13  A    between atoms: _28  and  _30
REMARK   14  A    between atoms: _30  and  _31
REMARK   15  A    between atoms: _30  and  _33
REMARK   16  A    between atoms: _33  and  _34
REMARK   17  A    between atoms: _37  and  _39
REMARK   18  A    between atoms: _39  and  _40
REMARK   19  A    between atoms: _39  and  _42
REMARK   20  A    between atoms: _42  and  _43
REMARK   21  A    between atoms: _46  and  _48
REMARK   22  A    between atoms: _48  and  _49
REMARK   23  A    between atoms: _52  and  _54
REMARK   24  A    between atoms: _54  and  _55
REMARK   25  A    between atoms: _54  and  _57
REMARK   26  A    between atoms: _57  and  _58
REMARK   27  A    between atoms: _63  and  _64
REMARK   28  A    between atoms: _66  and  _68
REMARK   29  A    between atoms: _68  and  _69
REMARK   30  A    between atoms: _68  and  _71
REMARK   31  A    between atoms: _71  and  _72
REMARK   32  A    between atoms: _75  and  _77
REMARK   33  A    between atoms: _77  and  _78
REMARK   34  A    between atoms: _77  and  _80
REMARK   35  A    between atoms: _80  and  _81
REMARK   36  A    between atoms: _87  and  _89
REMARK   37  A    between atoms: _89  and  _90
REMARK   38  A    between atoms: _89  and  _92
REMARK   39  A    between atoms: _92  and  _93
REMARK   40  A    between atoms: _96  and  _98
REMARK   41  A    between atoms: _98  and  _99
REMARK   42  A    between atoms: _98  and  _101
REMARK   43  A    between atoms: _101  and  _102
REMARK   44  A    between atoms: _105  and  _107
REMARK   45  A    between atoms: _107  and  _108
REMARK   46  A    between atoms: _110  and  _112
REMARK   47  A    between atoms: _112  and  _113
REMARK   48  A    between atoms: _112  and  _115
REMARK   49  A    between atoms: _115  and  _116
REMARK   50  A    between atoms: _118  and  _120
REMARK   51  A    between atoms: _120  and  _121
REMARK   52  A    between atoms: _120  and  _123
REMARK   53  A    between atoms: _123  and  _124
REMARK   54  A    between atoms: _126  and  _128
REMARK   55  A    between atoms: _128  and  _129
REMARK   56  A    between atoms: _128  and  _131
REMARK   57  A    between atoms: _131  and  _132
REMARK   58  A    between atoms: _135  and  _137
REMARK   59  A    between atoms: _137  and  _138
REMARK   60  A    between atoms: _137  and  _140
REMARK   61  A    between atoms: _140  and  _141
REMARK   62  A    between atoms: _151  and  _153
REMARK   63  A    between atoms: _153  and  _154
REMARK   64  A    between atoms: _153  and  _156
REMARK   65  A    between atoms: _156  and  _157
REMARK   66  A    between atoms: _159  and  _161
REMARK   67  A    between atoms: _161  and  _162
REMARK   68  A    between atoms: _161  and  _164
REMARK   69  A    between atoms: _164  and  _165
REMARK   70  A    between atoms: _168  and  _170
REMARK   71  A    between atoms: _170  and  _171
REMARK   72  A    between atoms: _170  and  _173
REMARK   73  A    between atoms: _173  and  _174
REMARK   74  A    between atoms: _176  and  _178
REMARK   75  A    between atoms: _178  and  _179
REMARK   76  A    between atoms: _178  and  _181
REMARK   77  A    between atoms: _181  and  _182
REMARK   78  A    between atoms: _187  and  _188
REMARK   79  A    between atoms: _190  and  _192
REMARK   80  A    between atoms: _192  and  _193
REMARK   81  A    between atoms: _195  and  _197
REMARK   82  A    between atoms: _197  and  _198
REMARK   83  A    between atoms: _197  and  _200
REMARK   84  A    between atoms: _200  and  _201
REMARK   85  A    between atoms: _204  and  _206
REMARK   86  A    between atoms: _206  and  _207
REMARK   87  A    between atoms: _209  and  _211
REMARK   88  A    between atoms: _211  and  _212
REMARK   89  A    between atoms: _211  and  _214
REMARK   90  A    between atoms: _214  and  _215
REMARK   91  A    between atoms: _217  and  _219
REMARK   92  A    between atoms: _219  and  _220
REMARK   93  A    between atoms: _219  and  _222
REMARK   94  A    between atoms: _222  and  _223
REMARK   95  A    between atoms: _225  and  _227
REMARK   96  A    between atoms: _227  and  _228
REMARK   97  A    between atoms: _227  and  _230
REMARK   98  A    between atoms: _230  and  _231
REMARK   99  A    between atoms: _233  and  _235
REMARK  100  A    between atoms: _235  and  _236
REMARK  101  A    between atoms: _235  and  _238
REMARK  102  A    between atoms: _238  and  _239
REMARK  103  A    between atoms: _245  and  _247
REMARK  104  A    between atoms: _247  and  _248
REMARK  105  A    between atoms: _247  and  _250
REMARK  106  A    between atoms: _250  and  _251
REMARK  107  A    between atoms: _251  and  _252
REMARK  108  A    between atoms: _255  and  _257
REMARK  109  A    between atoms: _257  and  _258
REMARK  110  A    between atoms: _257  and  _260
REMARK  111  A    between atoms: _260  and  _261
REMARK  112  A    between atoms: _264  and  _266
REMARK  113  A    between atoms: _266  and  _267
REMARK  114  A    between atoms: _266  and  _269
REMARK  115  A    between atoms: _269  and  _270
REMARK  116  A    between atoms: _272  and  _274
REMARK  117  A    between atoms: _274  and  _275
REMARK  118  A    between atoms: _274  and  _277
REMARK  119  A    between atoms: _277  and  _278
REMARK  120  A    between atoms: _281  and  _283
REMARK  121  A    between atoms: _283  and  _284
REMARK  122  A    between atoms: _283  and  _286
REMARK  123  A    between atoms: _286  and  _287
REMARK  124  A    between atoms: _290  and  _292
REMARK  125  A    between atoms: _292  and  _293
REMARK  126  A    between atoms: _295  and  _297
REMARK  127  A    between atoms: _297  and  _298
REMARK  128  A    between atoms: _297  and  _300
REMARK  129  A    between atoms: _300  and  _301
REMARK  130  A    between atoms: _304  and  _306
REMARK  131  A    between atoms: _306  and  _307
REMARK  132  A    between atoms: _306  and  _309
REMARK  133  A    between atoms: _309  and  _310
REMARK  134  A    between atoms: _313  and  _315
REMARK  135  A    between atoms: _315  and  _316
REMARK  136  A    between atoms: _315  and  _318
REMARK  137  A    between atoms: _318  and  _319
REMARK  138  A    between atoms: _322  and  _324
REMARK  139  A    between atoms: _324  and  _325
REMARK  140  A    between atoms: _328  and  _330
REMARK  141  A    between atoms: _330  and  _331
REMARK  142  A    between atoms: _330  and  _333
REMARK  143  A    between atoms: _333  and  _334
REMARK  144  A    between atoms: _340  and  _342
REMARK  145  A    between atoms: _342  and  _343
REMARK  146  A    between atoms: _342  and  _345
REMARK  147  A    between atoms: _345  and  _346
REMARK  148  A    between atoms: _349  and  _351
REMARK  149  A    between atoms: _351  and  _352
REMARK  150  A    between atoms: _351  and  _354
REMARK  151  A    between atoms: _354  and  _355
REMARK  152  A    between atoms: _358  and  _360
REMARK  153  A    between atoms: _360  and  _361
REMARK  154  A    between atoms: _360  and  _363
REMARK  155  A    between atoms: _363  and  _364
REMARK  156  A    between atoms: _369  and  _371
REMARK  157  A    between atoms: _371  and  _372
REMARK  158  A    between atoms: _371  and  _374
REMARK  159  A    between atoms: _374  and  _375
REMARK  160  A    between atoms: _378  and  _380
REMARK  161  A    between atoms: _380  and  _381
REMARK  162  A    between atoms: _380  and  _383
REMARK  163  A    between atoms: _383  and  _384
REMARK  164  A    between atoms: _384  and  _385
REMARK  165  A    between atoms: _390  and  _392
REMARK  166  A    between atoms: _392  and  _393
REMARK  167  A    between atoms: _392  and  _395
REMARK  168  A    between atoms: _395  and  _396
REMARK  169  A    between atoms: _396  and  _397
REMARK  170  A    between atoms: _402  and  _404
REMARK  171  A    between atoms: _404  and  _405
REMARK  172  A    between atoms: _407  and  _409
REMARK  173  A    between atoms: _409  and  _410
REMARK  174  A    between atoms: _409  and  _412
REMARK  175  A    between atoms: _412  and  _413
REMARK  176  A    between atoms: _419  and  _421
REMARK  177  A    between atoms: _421  and  _422
REMARK  178  A    between atoms: _421  and  _424
REMARK  179  A    between atoms: _424  and  _425
REMARK  180  A    between atoms: _428  and  _430
REMARK  181  A    between atoms: _430  and  _431
REMARK  182  A    between atoms: _434  and  _436
REMARK  183  A    between atoms: _436  and  _437
REMARK  184  A    between atoms: _436  and  _439
REMARK  185  A    between atoms: _439  and  _440
REMARK  186  A    between atoms: _443  and  _445
REMARK  187  A    between atoms: _445  and  _446
REMARK  188  A    between atoms: _445  and  _448
REMARK  189  A    between atoms: _448  and  _449
REMARK  190  A    between atoms: _452  and  _454
REMARK  191  A    between atoms: _454  and  _455
REMARK  192  A    between atoms: _457  and  _459
REMARK  193  A    between atoms: _459  and  _460
REMARK  194  A    between atoms: _459  and  _462
REMARK  195  A    between atoms: _462  and  _463
REMARK  196  A    between atoms: _466  and  _468
REMARK  197  A    between atoms: _468  and  _469
REMARK  198  A    between atoms: _468  and  _471
REMARK  199  A    between atoms: _471  and  _472
REMARK  200  A    between atoms: _475  and  _477
REMARK  201  A    between atoms: _477  and  _478
REMARK  202  A    between atoms: _477  and  _480
REMARK  203  A    between atoms: _480  and  _481
REMARK  204  A    between atoms: _484  and  _486
REMARK  205  A    between atoms: _486  and  _487
REMARK  206  A    between atoms: _486  and  _489
REMARK  207  A    between atoms: _489  and  _490
REMARK  208  A    between atoms: _495  and  _496
REMARK  209  A    between atoms: _498  and  _500
REMARK  210  A    between atoms: _500  and  _501
REMARK  211  A    between atoms: _500  and  _503
REMARK  212  A    between atoms: _503  and  _504
REMARK  213  A    between atoms: _510  and  _512
REMARK  214  A    between atoms: _512  and  _513
REMARK  215  A    between atoms: _515  and  _517
REMARK  216  A    between atoms: _517  and  _518
REMARK  217  A    between atoms: _517  and  _520
REMARK  218  A    between atoms: _520  and  _521
REMARK  219  A    between atoms: _524  and  _526
REMARK  220  A    between atoms: _526  and  _527
REMARK  221  A    between atoms: _529  and  _531
REMARK  222  A    between atoms: _531  and  _532
REMARK  223  A    between atoms: _531  and  _534
REMARK  224  A    between atoms: _534  and  _535
REMARK  225  A    between atoms: _538  and  _540
REMARK  226  A    between atoms: _540  and  _541
REMARK  227  A    between atoms: _540  and  _543
REMARK  228  A    between atoms: _543  and  _544
REMARK  229  A    between atoms: _549  and  _551
REMARK  230  A    between atoms: _551  and  _552
REMARK  231  A    between atoms: _551  and  _554
REMARK  232  A    between atoms: _554  and  _555
REMARK  233  A    between atoms: _558  and  _560
REMARK  234  A    between atoms: _560  and  _561
REMARK  235  A    between atoms: _563  and  _565
REMARK  236  A    between atoms: _565  and  _566
REMARK  237  A    between atoms: _565  and  _568
REMARK  238  A    between atoms: _568  and  _569
REMARK                            x       y       z     vdW  Elec       q    Type
REMARK                         _______ _______ _______ _____ _____    ______ ____
ROOT
ATOM      1  O   HOH     1       6.761   9.453  24.320  0.00  0.00    +0.000 OA
ENDROOT
TORSDOF 0
REMARK  Name = ../refined-set-2016/3prs/3prs_pocket.pdb
REMARK  238 active torsions:
REMARK  status: ('A' for Active; 'I' for Inactive)
REMARK    1  A    between atoms: _1  and  _3
REMARK    2  A    between atoms: _3  and  _4
REMARK    3  A    between atoms: _3  and  _6
REMARK    4  A    between atoms: _6  and  _7
REMARK    5  A    between atoms: _10  and  _12
REMARK    6  A    between atoms: _12  and  _13
REMARK    7  A    between atoms: _12  and  _15
REMARK    8  A    between atoms: _15  and  _16
REMARK    9  A    between atoms: _19  and  _21
REMARK   10  A    between atoms: _21  and  _22
REMARK   11  A    between atoms: _21  and  _24
REMARK   12  A    between atoms: _24  and  _25
REMARK   13  A    between atoms: _28  and  _30
REMARK   14  A    between atoms: _30  and  _31
REMARK   15  A    between atoms: _30  and  _33
REMARK   16  A    between atoms: _33  and  _34
REMARK   17  A    between atoms: _37  and  _39
REMARK   18  A    between atoms: _39  and  _40
REMARK   19  A    between atoms: _39  and  _42
REMARK   20  A    between atoms: _42  and  _43
REMARK   21  A    between atoms: _46  and  _48
REMARK   22  A    between atoms: _48  and  _49
REMARK   23  A    between atoms: _52  and  _54
REMARK   24  A    between atoms: _54  and  _55
REMARK   25  A    between atoms: _54  and  _57
REMARK   26  A    between atoms: _57  and  _58
REMARK   27  A    between atoms: _63  and  _64
REMARK   28  A    between atoms: _66  and  _68
REMARK   29  A    between atoms: _68  and  _69
REMARK   30  A    between atoms: _68  and  _71
REMARK   31  A    between atoms: _71  and  _72
REMARK   32  A    between atoms: _75  and  _77
REMARK   33  A    between atoms: _77  and  _78
REMARK   34  A    between atoms: _77  and  _80
REMARK   35  A    between atoms: _80  and  _81
REMARK   36  A    between atoms: _87  and  _89
REMARK   37  A    between atoms: _89  and  _90
REMARK   38  A    between atoms: _89  and  _92
REMARK   39  A    between atoms: _92  and  _93
REMARK   40  A    between atoms: _96  and  _98
REMARK   41  A    between atoms: _98  and  _99
REMARK   42  A    between atoms: _98  and  _101
REMARK   43  A    between atoms: _101  and  _102
REMARK   44  A    between atoms: _105  and  _107
REMARK   45  A    between atoms: _107  and  _108
REMARK   46  A    between atoms: _110  and  _112
REMARK   47  A    between atoms: _112  and  _113
REMARK   48  A    between atoms: _112  and  _115
REMARK   49  A    between atoms: _115  and  _116
REMARK   50  A    between atoms: _118  and  _120
REMARK   51  A    between atoms: _120  and  _121
REMARK   52  A    between atoms: _120  and  _123
REMARK   53  A    between atoms: _123  and  _124
REMARK   54  A    between atoms: _126  and  _128
REMARK   55  A    between atoms: _128  and  _129
REMARK   56  A    between atoms: _128  and  _131
REMARK   57  A    between atoms: _131  and  _132
REMARK   58  A    between atoms: _135  and  _137
REMARK   59  A    between atoms: _137  and  _138
REMARK   60  A    between atoms: _137  and  _140
REMARK   61  A    between atoms: _140  and  _141
REMARK   62  A    between atoms: _151  and  _153
REMARK   63  A    between atoms: _153  and  _154
REMARK   64  A    between atoms: _153  and  _156
REMARK   65  A    between atoms: _156  and  _157
REMARK   66  A    between atoms: _159  and  _161
REMARK   67  A    between atoms: _161  and  _162
REMARK   68  A    between atoms: _161  and  _164
REMARK   69  A    between atoms: _164  and  _165
REMARK   70  A    between atoms: _168  and  _170
REMARK   71  A    between atoms: _170  and  _171
REMARK   72  A    between atoms: _170  and  _173
REMARK   73  A    between atoms: _173  and  _174
REMARK   74  A    between atoms: _176  and  _178
REMARK   75  A    between atoms: _178  and  _179
REMARK   76  A    between atoms: _178  and  _181
REMARK   77  A    between atoms: _181  and  _182
REMARK   78  A    between atoms: _187  and  _188
REMARK   79  A    between atoms: _190  and  _192
REMARK   80  A    between atoms: _192  and  _193
REMARK   81  A    between atoms: _195  and  _197
REMARK   82  A    between atoms: _197  and  _198
REMARK   83  A    between atoms: _197  and  _200
REMARK   84  A    between atoms: _200  and  _201
REMARK   85  A    between atoms: _204  and  _206
REMARK   86  A    between atoms: _206  and  _207
REMARK   87  A    between atoms: _209  and  _211
REMARK   88  A    between atoms: _211  and  _212
REMARK   89  A    between atoms: _211  and  _214
REMARK   90  A    between atoms: _214  and  _215
REMARK   91  A    between atoms: _217  and  _219
REMARK   92  A    between atoms: _219  and  _220
REMARK   93  A    between atoms: _219  and  _222
REMARK   94  A    between atoms: _222  and  _223
REMARK   95  A    between atoms: _225  and  _227
REMARK   96  A    between atoms: _227  and  _228
REMARK   97  A    between atoms: _227  and  _230
REMARK   98  A    between atoms: _230  and  _231
REMARK   99  A    between atoms: _233  and  _235
REMARK  100  A    between atoms: _235  and  _236
REMARK  101  A    between atoms: _235  and  _238
REMARK  102  A    between atoms: _238  and  _239
REMARK  103  A    between atoms: _245  and  _247
REMARK  104  A    between atoms: _247  and  _248
REMARK  105  A    between atoms: _247  and  _250
REMARK  106  A    between atoms: _250  and  _251
REMARK  107  A    between atoms: _251  and  _252
REMARK  108  A    between atoms: _255  and  _257
REMARK  109  A    between atoms: _257  and  _258
REMARK  110  A    between atoms: _257  and  _260
REMARK  111  A    between atoms: _260  and  _261
REMARK  112  A    between atoms: _264  and  _266
REMARK  113  A    between atoms: _266  and  _267
REMARK  114  A    between atoms: _266  and  _269
REMARK  115  A    between atoms: _269  and  _270
REMARK  116  A    between atoms: _272  and  _274
REMARK  117  A    between atoms: _274  and  _275
REMARK  118  A    between atoms: _274  and  _277
REMARK  119  A    between atoms: _277  and  _278
REMARK  120  A    between atoms: _281  and  _283
REMARK  121  A    between atoms: _283  and  _284
REMARK  122  A    between atoms: _283  and  _286
REMARK  123  A    between atoms: _286  and  _287
REMARK  124  A    between atoms: _290  and  _292
REMARK  125  A    between atoms: _292  and  _293
REMARK  126  A    between atoms: _295  and  _297
REMARK  127  A    between atoms: _297  and  _298
REMARK  128  A    between atoms: _297  and  _300
REMARK  129  A    between atoms: _300  and  _301
REMARK  130  A    between atoms: _304  and  _306
REMARK  131  A    between atoms: _306  and  _307
REMARK  132  A    between atoms: _306  and  _309
REMARK  133  A    between atoms: _309  and  _310
REMARK  134  A    between atoms: _313  and  _315
REMARK  135  A    between atoms: _315  and  _316
REMARK  136  A    between atoms: _315  and  _318
REMARK  137  A    between atoms: _318  and  _319
REMARK  138  A    between atoms: _322  and  _324
REMARK  139  A    between atoms: _324  and  _325
REMARK  140  A    between atoms: _328  and  _330
REMARK  141  A    between atoms: _330  and  _331
REMARK  142  A    between atoms: _330  and  _333
REMARK  143  A    between atoms: _333  and  _334
REMARK  144  A    between atoms: _340  and  _342
REMARK  145  A    between atoms: _342  and  _343
REMARK  146  A    between atoms: _342  and  _345
REMARK  147  A    between atoms: _345  and  _346
REMARK  148  A    between atoms: _349  and  _351
REMARK  149  A    between atoms: _351  and  _352
REMARK  150  A    between atoms: _351  and  _354
REMARK  151  A    between atoms: _354  and  _355
REMARK  152  A    between atoms: _358  and  _360
REMARK  153  A    between atoms: _360  and  _361
REMARK  154  A    between atoms: _360  and  _363
REMARK  155  A    between atoms: _363  and  _364
REMARK  156  A    between atoms: _369  and  _371
REMARK  157  A    between atoms: _371  and  _372
REMARK  158  A    between atoms: _371  and  _374
REMARK  159  A    between atoms: _374  and  _375
REMARK  160  A    between atoms: _378  and  _380
REMARK  161  A    between atoms: _380  and  _381
REMARK  162  A    between atoms: _380  and  _383
REMARK  163  A    between atoms: _383  and  _384
REMARK  164  A    between atoms: _384  and  _385
REMARK  165  A    between atoms: _390  and  _392
REMARK  166  A    between atoms: _392  and  _393
REMARK  167  A    between atoms: _392  and  _395
REMARK  168  A    between atoms: _395  and  _396
REMARK  169  A    between atoms: _396  and  _397
REMARK  170  A    between atoms: _402  and  _404
REMARK  171  A    between atoms: _404  and  _405
REMARK  172  A    between atoms: _407  and  _409
REMARK  173  A    between atoms: _409  and  _410
REMARK  174  A    between atoms: _409  and  _412
REMARK  175  A    between atoms: _412  and  _413
REMARK  176  A    between atoms: _419  and  _421
REMARK  177  A    between atoms: _421  and  _422
REMARK  178  A    between atoms: _421  and  _424
REMARK  179  A    between atoms: _424  and  _425
REMARK  180  A    between atoms: _428  and  _430
REMARK  181  A    between atoms: _430  and  _431
REMARK  182  A    between atoms: _434  and  _436
REMARK  183  A    between atoms: _436  and  _437
REMARK  184  A    between atoms: _436  and  _439
REMARK  185  A    between atoms: _439  and  _440
REMARK  186  A    between atoms: _443  and  _445
REMARK  187  A    between atoms: _445  and  _446
REMARK  188  A    between atoms: _445  and  _448
REMARK  189  A    between atoms: _448  and  _449
REMARK  190  A    between atoms: _452  and  _454
REMARK  191  A    between atoms: _454  and  _455
REMARK  192  A    between atoms: _457  and  _459
REMARK  193  A    between atoms: _459  and  _460
REMARK  194  A    between atoms: _459  and  _462
REMARK  195  A    between atoms: _462  and  _463
REMARK  196  A    between atoms: _466  and  _468
REMARK  197  A    between atoms: _468  and  _469
REMARK  198  A    between atoms: _468  and  _471
REMARK  199  A    between atoms: _471  and  _472
REMARK  200  A    between atoms: _475  and  _477
REMARK  201  A    between atoms: _477  and  _478
REMARK  202  A    between atoms: _477  and  _480
REMARK  203  A    between atoms: _480  and  _481
REMARK  204  A    between atoms: _484  and  _486
REMARK  205  A    between atoms: _486  and  _487
REMARK  206  A    between atoms: _486  and  _489
REMARK  207  A    between atoms: _489  and  _490
REMARK  208  A    between atoms: _495  and  _496
REMARK  209  A    between atoms: _498  and  _500
REMARK  210  A    between atoms: _500  and  _501
REMARK  211  A    between atoms: _500  and  _503
REMARK  212  A    between atoms: _503  and  _504
REMARK  213  A    between atoms: _510  and  _512
REMARK  214  A    between atoms: _512  and  _513
REMARK  215  A    between atoms: _515  and  _517
REMARK  216  A    between atoms: _517  and  _518
REMARK  217  A    between atoms: _517  and  _520
REMARK  218  A    between atoms: _520  and  _521
REMARK  219  A    between atoms: _524  and  _526
REMARK  220  A    between atoms: _526  and  _527
REMARK  221  A    between atoms: _529  and  _531
REMARK  222  A    between atoms: _531  and  _532
REMARK  223  A    between atoms: _531  and  _534
REMARK  224  A    between atoms: _534  and  _535
REMARK  225  A    between atoms: _538  and  _540
REMARK  226  A    between atoms: _540  and  _541
REMARK  227  A    between atoms: _540  and  _543
REMARK  228  A    between atoms: _543  and  _544
REMARK  229  A    between atoms: _549  and  _551
REMARK  230  A    between atoms: _551  and  _552
REMARK  231  A    between atoms: _551  and  _554
REMARK  232  A    between atoms: _554  and  _555
REMARK  233  A    between atoms: _558  and  _560
REMARK  234  A    between atoms: _560  and  _561
REMARK  235  A    between atoms: _563  and  _565
REMARK  236  A    between atoms: _565  and  _566
REMARK  237  A    between atoms: _565  and  _568
REMARK  238  A    between atoms: _568  and  _569
REMARK                            x       y       z     vdW  Elec       q    Type
REMARK                         _______ _______ _______ _____ _____    ______ ____
ROOT
ATOM      1  O   HOH     1      -9.540   1.770   5.483  0.00  0.00    +0.000 OA
ENDROOT
TORSDOF 0
REMARK  Name = ../refined-set-2016/3prs/3prs_pocket.pdb
REMARK  238 active torsions:
REMARK  status: ('A' for Active; 'I' for Inactive)
REMARK    1  A    between atoms: _1  and  _3
REMARK    2  A    between atoms: _3  and  _4
REMARK    3  A    between atoms: _3  and  _6
REMARK    4  A    between atoms: _6  and  _7
REMARK    5  A    between atoms: _10  and  _12
REMARK    6  A    between atoms: _12  and  _13
REMARK    7  A    between atoms: _12  and  _15
REMARK    8  A    between atoms: _15  and  _16
REMARK    9  A    between atoms: _19  and  _21
REMARK   10  A    between atoms: _21  and  _22
REMARK   11  A    between atoms: _21  and  _24
REMARK   12  A    between atoms: _24  and  _25
REMARK   13  A    between atoms: _28  and  _30
REMARK   14  A    between atoms: _30  and  _31
REMARK   15  A    between atoms: _30  and  _33
REMARK   16  A    between atoms: _33  and  _34
REMARK   17  A    between atoms: _37  and  _39
REMARK   18  A    between atoms: _39  and  _40
REMARK   19  A    between atoms: _39  and  _42
REMARK   20  A    between atoms: _42  and  _43
REMARK   21  A    between atoms: _46  and  _48
REMARK   22  A    between atoms: _48  and  _49
REMARK   23  A    between atoms: _52  and  _54
REMARK   24  A    between atoms: _54  and  _55
REMARK   25  A    between atoms: _54  and  _57
REMARK   26  A    between atoms: _57  and  _58
REMARK   27  A    between atoms: _63  and  _64
REMARK   28  A    between atoms: _66  and  _68
REMARK   29  A    between atoms: _68  and  _69
REMARK   30  A    between atoms: _68  and  _71
REMARK   31  A    between atoms: _71  and  _72
REMARK   32  A    between atoms: _75  and  _77
REMARK   33  A    between atoms: _77  and  _78
REMARK   34  A    between atoms: _77  and  _80
REMARK   35  A    between atoms: _80  and  _81
REMARK   36  A    between atoms: _87  and  _89
REMARK   37  A    between atoms: _89  and  _90
REMARK   38  A    between atoms: _89  and  _92
REMARK   39  A    between atoms: _92  and  _93
REMARK   40  A    between atoms: _96  and  _98
REMARK   41  A    between atoms: _98  and  _99
REMARK   42  A    between atoms: _98  and  _101
REMARK   43  A    between atoms: _101  and  _102
REMARK   44  A    between atoms: _105  and  _107
REMARK   45  A    between atoms: _107  and  _108
REMARK   46  A    between atoms: _110  and  _112
REMARK   47  A    between atoms: _112  and  _113
REMARK   48  A    between atoms: _112  and  _115
REMARK   49  A    between atoms: _115  and  _116
REMARK   50  A    between atoms: _118  and  _120
REMARK   51  A    between atoms: _120  and  _121
REMARK   52  A    between atoms: _120  and  _123
REMARK   53  A    between atoms: _123  and  _124
REMARK   54  A    between atoms: _126  and  _128
REMARK   55  A    between atoms: _128  and  _129
REMARK   56  A    between atoms: _128  and  _131
REMARK   57  A    between atoms: _131  and  _132
REMARK   58  A    between atoms: _135  and  _137
REMARK   59  A    between atoms: _137  and  _138
REMARK   60  A    between atoms: _137  and  _140
REMARK   61  A    between atoms: _140  and  _141
REMARK   62  A    between atoms: _151  and  _153
REMARK   63  A    between atoms: _153  and  _154
REMARK   64  A    between atoms: _153  and  _156
REMARK   65  A    between atoms: _156  and  _157
REMARK   66  A    between atoms: _159  and  _161
REMARK   67  A    between atoms: _161  and  _162
REMARK   68  A    between atoms: _161  and  _164
REMARK   69  A    between atoms: _164  and  _165
REMARK   70  A    between atoms: _168  and  _170
REMARK   71  A    between atoms: _170  and  _171
REMARK   72  A    between atoms: _170  and  _173
REMARK   73  A    between atoms: _173  and  _174
REMARK   74  A    between atoms: _176  and  _178
REMARK   75  A    between atoms: _178  and  _179
REMARK   76  A    between atoms: _178  and  _181
REMARK   77  A    between atoms: _181  and  _182
REMARK   78  A    between atoms: _187  and  _188
REMARK   79  A    between atoms: _190  and  _192
REMARK   80  A    between atoms: _192  and  _193
REMARK   81  A    between atoms: _195  and  _197
REMARK   82  A    between atoms: _197  and  _198
REMARK   83  A    between atoms: _197  and  _200
REMARK   84  A    between atoms: _200  and  _201
REMARK   85  A    between atoms: _204  and  _206
REMARK   86  A    between atoms: _206  and  _207
REMARK   87  A    between atoms: _209  and  _211
REMARK   88  A    between atoms: _211  and  _212
REMARK   89  A    between atoms: _211  and  _214
REMARK   90  A    between atoms: _214  and  _215
REMARK   91  A    between atoms: _217  and  _219
REMARK   92  A    between atoms: _219  and  _220
REMARK   93  A    between atoms: _219  and  _222
REMARK   94  A    between atoms: _222  and  _223
REMARK   95  A    between atoms: _225  and  _227
REMARK   96  A    between atoms: _227  and  _228
REMARK   97  A    between atoms: _227  and  _230
REMARK   98  A    between atoms: _230  and  _231
REMARK   99  A    between atoms: _233  and  _235
REMARK  100  A    between atoms: _235  and  _236
REMARK  101  A    between atoms: _235  and  _238
REMARK  102  A    between atoms: _238  and  _239
REMARK  103  A    between atoms: _245  and  _247
REMARK  104  A    between atoms: _247  and  _248
REMARK  105  A    between atoms: _247  and  _250
REMARK  106  A    between atoms: _250  and  _251
REMARK  107  A    between atoms: _251  and  _252
REMARK  108  A    between atoms: _255  and  _257
REMARK  109  A    between atoms: _257  and  _258
REMARK  110  A    between atoms: _257  and  _260
REMARK  111  A    between atoms: _260  and  _261
REMARK  112  A    between atoms: _264  and  _266
REMARK  113  A    between atoms: _266  and  _267
REMARK  114  A    between atoms: _266  and  _269
REMARK  115  A    between atoms: _269  and  _270
REMARK  116  A    between atoms: _272  and  _274
REMARK  117  A    between atoms: _274  and  _275
REMARK  118  A    between atoms: _274  and  _277
REMARK  119  A    between atoms: _277  and  _278
REMARK  120  A    between atoms: _281  and  _283
REMARK  121  A    between atoms: _283  and  _284
REMARK  122  A    between atoms: _283  and  _286
REMARK  123  A    between atoms: _286  and  _287
REMARK  124  A    between atoms: _290  and  _292
REMARK  125  A    between atoms: _292  and  _293
REMARK  126  A    between atoms: _295  and  _297
REMARK  127  A    between atoms: _297  and  _298
REMARK  128  A    between atoms: _297  and  _300
REMARK  129  A    between atoms: _300  and  _301
REMARK  130  A    between atoms: _304  and  _306
REMARK  131  A    between atoms: _306  and  _307
REMARK  132  A    between atoms: _306  and  _309
REMARK  133  A    between atoms: _309  and  _310
REMARK  134  A    between atoms: _313  and  _315
REMARK  135  A    between atoms: _315  and  _316
REMARK  136  A    between atoms: _315  and  _318
REMARK  137  A    between atoms: _318  and  _319
REMARK  138  A    between atoms: _322  and  _324
REMARK  139  A    between atoms: _324  and  _325
REMARK  140  A    between atoms: _328  and  _330
REMARK  141  A    between atoms: _330  and  _331
REMARK  142  A    between atoms: _330  and  _333
REMARK  143  A    between atoms: _333  and  _334
REMARK  144  A    between atoms: _340  and  _342
REMARK  145  A    between atoms: _342  and  _343
REMARK  146  A    between atoms: _342  and  _345
REMARK  147  A    between atoms: _345  and  _346
REMARK  148  A    between atoms: _349  and  _351
REMARK  149  A    between atoms: _351  and  _352
REMARK  150  A    between atoms: _351  and  _354
REMARK  151  A    between atoms: _354  and  _355
REMARK  152  A    between atoms: _358  and  _360
REMARK  153  A    between atoms: _360  and  _361
REMARK  154  A    between atoms: _360  and  _363
REMARK  155  A    between atoms: _363  and  _364
REMARK  156  A    between atoms: _369  and  _371
REMARK  157  A    between atoms: _371  and  _372
REMARK  158  A    between atoms: _371  and  _374
REMARK  159  A    between atoms: _374  and  _375
REMARK  160  A    between atoms: _378  and  _380
REMARK  161  A    between atoms: _380  and  _381
REMARK  162  A    between atoms: _380  and  _383
REMARK  163  A    between atoms: _383  and  _384
REMARK  164  A    between atoms: _384  and  _385
REMARK  165  A    between atoms: _390  and  _392
REMARK  166  A    between atoms: _392  and  _393
REMARK  167  A    between atoms: _392  and  _395
REMARK  168  A    between atoms: _395  and  _396
REMARK  169  A    between atoms: _396  and  _397
REMARK  170  A    between atoms: _402  and  _404
REMARK  171  A    between atoms: _404  and  _405
REMARK  172  A    between atoms: _407  and  _409
REMARK  173  A    between atoms: _409  and  _410
REMARK  174  A    between atoms: _409  and  _412
REMARK  175  A    between atoms: _412  and  _413
REMARK  176  A    between atoms: _419  and  _421
REMARK  177  A    between atoms: _421  and  _422
REMARK  178  A    between atoms: _421  and  _424
REMARK  179  A    between atoms: _424  and  _425
REMARK  180  A    between atoms: _428  and  _430
REMARK  181  A    between atoms: _430  and  _431
REMARK  182  A    between atoms: _434  and  _436
REMARK  183  A    between atoms: _436  and  _437
REMARK  184  A    between atoms: _436  and  _439
REMARK  185  A    between atoms: _439  and  _440
REMARK  186  A    between atoms: _443  and  _445
REMARK  187  A    between atoms: _445  and  _446
REMARK  188  A    between atoms: _445  and  _448
REMARK  189  A    between atoms: _448  and  _449
REMARK  190  A    between atoms: _452  and  _454
REMARK  191  A    between atoms: _454  and  _455
REMARK  192  A    between atoms: _457  and  _459
REMARK  193  A    between atoms: _459  and  _460
REMARK  194  A    between atoms: _459  and  _462
REMARK  195  A    between atoms: _462  and  _463
REMARK  196  A    between atoms: _466  and  _468
REMARK  197  A    between atoms: _468  and  _469
REMARK  198  A    between atoms: _468  and  _471
REMARK  199  A    between atoms: _471  and  _472
REMARK  200  A    between atoms: _475  and  _477
REMARK  201  A    between atoms: _477  and  _478
REMARK  202  A    between atoms: _477  and  _480
REMARK  203  A    between atoms: _480  and  _481
REMARK  204  A    between atoms: _484  and  _486
REMARK  205  A    between atoms: _486  and  _487
REMARK  206  A    between atoms: _486  and  _489
REMARK  207  A    between atoms: _489  and  _490
REMARK  208  A    between atoms: _495  and  _496
REMARK  209  A    between atoms: _498  and  _500
REMARK  210  A    between atoms: _500  and  _501
REMARK  211  A    between atoms: _500  and  _503
REMARK  212  A    between atoms: _503  and  _504
REMARK  213  A    between atoms: _510  and  _512
REMARK  214  A    between atoms: _512  and  _513
REMARK  215  A    between atoms: _515  and  _517
REMARK  216  A    between atoms: _517  and  _518
REMARK  217  A    between atoms: _517  and  _520
REMARK  218  A    between atoms: _520  and  _521
REMARK  219  A    between atoms: _524  and  _526
REMARK  220  A    between atoms: _526  and  _527
REMARK  221  A    between atoms: _529  and  _531
REMARK  222  A    between atoms: _531  and  _532
REMARK  223  A    between atoms: _531  and  _534
REMARK  224  A    between atoms: _534  and  _535
REMARK  225  A    between atoms: _538  and  _540
REMARK  226  A    between atoms: _540  and  _541
REMARK  227  A    between atoms: _540  and  _543
REMARK  228  A    between atoms: _543  and  _544
REMARK  229  A    between atoms: _549  and  _551
REMARK  230  A    between atoms: _551  and  _552
REMARK  231  A    between atoms: _551  and  _554
REMARK  232  A    between atoms: _554  and  _555
REMARK  233  A    between atoms: _558  and  _560
REMARK  234  A    between atoms: _560  and  _561
REMARK  235  A    between atoms: _563  and  _565
REMARK  236  A    between atoms: _565  and  _566
REMARK  237  A    between atoms: _565  and  _568
REMARK  238  A    between atoms: _568  and  _569
REMARK                            x       y       z     vdW  Elec       q    Type
REMARK                         _______ _______ _______ _____ _____    ______ ____
ROOT
ATOM      1  O   HOH     1     -13.078  -0.794   9.797  0.00  0.00    +0.000 OA
ENDROOT
TORSDOF 0
