REMARK  Name = ../refined-set-2016/4ca7/4ca7_pocket.pdb
REMARK  306 active torsions:
REMARK  status: ('A' for Active; 'I' for Inactive)
REMARK    1  A    between atoms: _1  and  _3
REMARK    2  A    between atoms: _3  and  _4
REMARK    3  A    between atoms: _3  and  _6
REMARK    4  A    between atoms: _6  and  _7
REMARK    5  A    between atoms: _7  and  _8
REMARK    6  A    between atoms: _8  and  _9
REMARK    7  A    between atoms: _9  and  _10
REMARK    8  A    between atoms: _14  and  _16
REMARK    9  A    between atoms: _16  and  _17
REMARK   10  A    between atoms: _16  and  _19
REMARK   11  A    between atoms: _19  and  _20
REMARK   12  A    between atoms: _20  and  _21
REMARK   13  A    between atoms: _24  and  _26
REMARK   14  A    between atoms: _26  and  _27
REMARK   15  A    between atoms: _26  and  _29
REMARK   16  A    between atoms: _29  and  _30
REMARK   17  A    between atoms: _30  and  _31
REMARK   18  A    between atoms: _34  and  _36
REMARK   19  A    between atoms: _36  and  _37
REMARK   20  A    between atoms: _36  and  _39
REMARK   21  A    between atoms: _39  and  _40
REMARK   22  A    between atoms: _45  and  _47
REMARK   23  A    between atoms: _47  and  _48
REMARK   24  A    between atoms: _47  and  _50
REMARK   25  A    between atoms: _50  and  _51
REMARK   26  A    between atoms: _61  and  _63
REMARK   27  A    between atoms: _63  and  _64
REMARK   28  A    between atoms: _63  and  _66
REMARK   29  A    between atoms: _66  and  _67
REMARK   30  A    between atoms: _67  and  _68
REMARK   31  A    between atoms: _73  and  _75
REMARK   32  A    between atoms: _75  and  _76
REMARK   33  A    between atoms: _75  and  _78
REMARK   34  A    between atoms: _78  and  _79
REMARK   35  A    between atoms: _79  and  _80
REMARK   36  A    between atoms: _85  and  _87
REMARK   37  A    between atoms: _87  and  _88
REMARK   38  A    between atoms: _87  and  _90
REMARK   39  A    between atoms: _90  and  _91
REMARK   40  A    between atoms: _93  and  _95
REMARK   41  A    between atoms: _95  and  _96
REMARK   42  A    between atoms: _95  and  _98
REMARK   43  A    between atoms: _101  and  _103
REMARK   44  A    between atoms: _103  and  _104
REMARK   45  A    between atoms: _103  and  _106
REMARK   46  A    between atoms: _108  and  _110
REMARK   47  A    between atoms: _110  and  _111
REMARK   48  A    between atoms: _110  and  _113
REMARK   49  A    between atoms: _113  and  _114
REMARK   50  A    between atoms: _119  and  _121
REMARK   51  A    between atoms: _121  and  _122
REMARK   52  A    between atoms: _125  and  _127
REMARK   53  A    between atoms: _127  and  _128
REMARK   54  A    between atoms: _127  and  _130
REMARK   55  A    between atoms: _130  and  _131
REMARK   56  A    between atoms: _133  and  _135
REMARK   57  A    between atoms: _135  and  _136
REMARK   58  A    between atoms: _139  and  _141
REMARK   59  A    between atoms: _141  and  _142
REMARK   60  A    between atoms: _141  and  _144
REMARK   61  A    between atoms: _144  and  _145
REMARK   62  A    between atoms: _155  and  _157
REMARK   63  A    between atoms: _157  and  _158
REMARK   64  A    between atoms: _157  and  _160
REMARK   65  A    between atoms: _160  and  _161
REMARK   66  A    between atoms: _164  and  _166
REMARK   67  A    between atoms: _166  and  _167
REMARK   68  A    between atoms: _166  and  _169
REMARK   69  A    between atoms: _169  and  _170
REMARK   70  A    between atoms: _175  and  _176
REMARK   71  A    between atoms: _178  and  _180
REMARK   72  A    between atoms: _180  and  _181
REMARK   73  A    between atoms: _180  and  _183
REMARK   74  A    between atoms: _183  and  _184
REMARK   75  A    between atoms: _184  and  _185
REMARK   76  A    between atoms: _185  and  _186
REMARK   77  A    between atoms: _195  and  _197
REMARK   78  A    between atoms: _197  and  _198
REMARK   79  A    between atoms: _197  and  _200
REMARK   80  A    between atoms: _200  and  _201
REMARK   81  A    between atoms: _204  and  _206
REMARK   82  A    between atoms: _206  and  _207
REMARK   83  A    between atoms: _206  and  _209
REMARK   84  A    between atoms: _209  and  _210
REMARK   85  A    between atoms: _210  and  _211
REMARK   86  A    between atoms: _211  and  _212
REMARK   87  A    between atoms: _212  and  _213
REMARK   88  A    between atoms: _217  and  _219
REMARK   89  A    between atoms: _219  and  _220
REMARK   90  A    between atoms: _219  and  _222
REMARK   91  A    between atoms: _222  and  _223
REMARK   92  A    between atoms: _223  and  _224
REMARK   93  A    between atoms: _229  and  _231
REMARK   94  A    between atoms: _231  and  _232
REMARK   95  A    between atoms: _231  and  _234
REMARK   96  A    between atoms: _234  and  _235
REMARK   97  A    between atoms: _235  and  _236
REMARK   98  A    between atoms: _236  and  _237
REMARK   99  A    between atoms: _246  and  _248
REMARK  100  A    between atoms: _248  and  _249
REMARK  101  A    between atoms: _248  and  _251
REMARK  102  A    between atoms: _251  and  _252
REMARK  103  A    between atoms: _252  and  _253
REMARK  104  A    between atoms: _258  and  _260
REMARK  105  A    between atoms: _260  and  _261
REMARK  106  A    between atoms: _260  and  _263
REMARK  107  A    between atoms: _263  and  _264
REMARK  108  A    between atoms: _267  and  _269
REMARK  109  A    between atoms: _269  and  _270
REMARK  110  A    between atoms: _269  and  _272
REMARK  111  A    between atoms: _272  and  _273
REMARK  112  A    between atoms: _273  and  _274
REMARK  113  A    between atoms: _279  and  _281
REMARK  114  A    between atoms: _281  and  _282
REMARK  115  A    between atoms: _281  and  _284
REMARK  116  A    between atoms: _284  and  _285
REMARK  117  A    between atoms: _288  and  _290
REMARK  118  A    between atoms: _290  and  _291
REMARK  119  A    between atoms: _290  and  _293
REMARK  120  A    between atoms: _293  and  _294
REMARK  121  A    between atoms: _300  and  _302
REMARK  122  A    between atoms: _302  and  _303
REMARK  123  A    between atoms: _302  and  _305
REMARK  124  A    between atoms: _305  and  _306
REMARK  125  A    between atoms: _309  and  _311
REMARK  126  A    between atoms: _311  and  _312
REMARK  127  A    between atoms: _311  and  _314
REMARK  128  A    between atoms: _317  and  _319
REMARK  129  A    between atoms: _319  and  _320
REMARK  130  A    between atoms: _319  and  _322
REMARK  131  A    between atoms: _322  and  _323
REMARK  132  A    between atoms: _328  and  _330
REMARK  133  A    between atoms: _341  and  _344
REMARK  134  A    between atoms: _344  and  _345
REMARK  135  A    between atoms: _345  and  _346
REMARK  136  A    between atoms: _351  and  _354
REMARK  137  A    between atoms: _354  and  _355
REMARK  138  A    between atoms: _365  and  _366
REMARK  139  A    between atoms: _374  and  _376
REMARK  140  A    between atoms: _376  and  _377
REMARK  141  A    between atoms: _376  and  _379
REMARK  142  A    between atoms: _379  and  _380
REMARK  143  A    between atoms: _383  and  _385
REMARK  144  A    between atoms: _385  and  _386
REMARK  145  A    between atoms: _385  and  _388
REMARK  146  A    between atoms: _388  and  _389
REMARK  147  A    between atoms: _394  and  _395
REMARK  148  A    between atoms: _397  and  _399
REMARK  149  A    between atoms: _399  and  _400
REMARK  150  A    between atoms: _399  and  _402
REMARK  151  A    between atoms: _402  and  _403
REMARK  152  A    between atoms: _409  and  _411
REMARK  153  A    between atoms: _411  and  _412
REMARK  154  A    between atoms: _411  and  _414
REMARK  155  A    between atoms: _414  and  _415
REMARK  156  A    between atoms: _420  and  _421
REMARK  157  A    between atoms: _423  and  _425
REMARK  158  A    between atoms: _425  and  _426
REMARK  159  A    between atoms: _425  and  _428
REMARK  160  A    between atoms: _428  and  _429
REMARK  161  A    between atoms: _429  and  _430
REMARK  162  A    between atoms: _430  and  _431
REMARK  163  A    between atoms: _440  and  _442
REMARK  164  A    between atoms: _442  and  _443
REMARK  165  A    between atoms: _442  and  _445
REMARK  166  A    between atoms: _445  and  _446
REMARK  167  A    between atoms: _449  and  _451
REMARK  168  A    between atoms: _451  and  _452
REMARK  169  A    between atoms: _454  and  _456
REMARK  170  A    between atoms: _456  and  _457
REMARK  171  A    between atoms: _456  and  _459
REMARK  172  A    between atoms: _459  and  _460
REMARK  173  A    between atoms: _466  and  _467
REMARK  174  A    between atoms: _472  and  _474
REMARK  175  A    between atoms: _474  and  _475
REMARK  176  A    between atoms: _477  and  _479
REMARK  177  A    between atoms: _479  and  _480
REMARK  178  A    between atoms: _479  and  _482
REMARK  179  A    between atoms: _482  and  _483
REMARK  180  A    between atoms: _489  and  _491
REMARK  181  A    between atoms: _491  and  _492
REMARK  182  A    between atoms: _491  and  _494
REMARK  183  A    between atoms: _494  and  _495
REMARK  184  A    between atoms: _500  and  _502
REMARK  185  A    between atoms: _502  and  _503
REMARK  186  A    between atoms: _502  and  _505
REMARK  187  A    between atoms: _505  and  _506
REMARK  188  A    between atoms: _506  and  _507
REMARK  189  A    between atoms: _507  and  _508
REMARK  190  A    between atoms: _508  and  ZN_790
REMARK  191  A    between atoms: _510  and  _512
REMARK  192  A    between atoms: _512  and  _513
REMARK  193  A    between atoms: _516  and  _518
REMARK  194  A    between atoms: _518  and  _519
REMARK  195  A    between atoms: _521  and  _523
REMARK  196  A    between atoms: _523  and  _524
REMARK  197  A    between atoms: _523  and  _526
REMARK  198  A    between atoms: _526  and  _527
REMARK  199  A    between atoms: _530  and  _532
REMARK  200  A    between atoms: _532  and  _533
REMARK  201  A    between atoms: _532  and  _535
REMARK  202  A    between atoms: _538  and  _540
REMARK  203  A    between atoms: _540  and  _541
REMARK  204  A    between atoms: _540  and  _543
REMARK  205  A    between atoms: _543  and  _544
REMARK  206  A    between atoms: _546  and  _548
REMARK  207  A    between atoms: _548  and  _549
REMARK  208  A    between atoms: _548  and  _551
REMARK  209  A    between atoms: _551  and  _552
REMARK  210  A    between atoms: _555  and  _557
REMARK  211  A    between atoms: _557  and  _558
REMARK  212  A    between atoms: _557  and  _560
REMARK  213  A    between atoms: _560  and  _561
REMARK  214  A    between atoms: _563  and  _565
REMARK  215  A    between atoms: _565  and  _566
REMARK  216  A    between atoms: _565  and  _568
REMARK  217  A    between atoms: _568  and  _569
REMARK  218  A    between atoms: _572  and  _574
REMARK  219  A    between atoms: _574  and  _575
REMARK  220  A    between atoms: _574  and  _577
REMARK  221  A    between atoms: _577  and  _578
REMARK  222  A    between atoms: _578  and  _579
REMARK  223  A    between atoms: _579  and  _580
REMARK  224  A    between atoms: _580  and  _581
REMARK  225  A    between atoms: _585  and  _587
REMARK  226  A    between atoms: _587  and  _588
REMARK  227  A    between atoms: _587  and  _590
REMARK  228  A    between atoms: _590  and  _591
REMARK  229  A    between atoms: _597  and  _599
REMARK  230  A    between atoms: _599  and  _600
REMARK  231  A    between atoms: _599  and  _602
REMARK  232  A    between atoms: _602  and  _603
REMARK  233  A    between atoms: _609  and  _611
REMARK  234  A    between atoms: _611  and  _612
REMARK  235  A    between atoms: _615  and  _617
REMARK  236  A    between atoms: _617  and  _618
REMARK  237  A    between atoms: _617  and  _620
REMARK  238  A    between atoms: _620  and  _621
REMARK  239  A    between atoms: _621  and  _622
REMARK  240  A    between atoms: _624  and  _626
REMARK  241  A    between atoms: _626  and  _627
REMARK  242  A    between atoms: _626  and  _629
REMARK  243  A    between atoms: _629  and  _630
REMARK  244  A    between atoms: _630  and  _631
REMARK  245  A    between atoms: _631  and  _632
REMARK  246  A    between atoms: _632  and  _633
REMARK  247  A    between atoms: _637  and  _639
REMARK  248  A    between atoms: _639  and  _640
REMARK  249  A    between atoms: _639  and  _642
REMARK  250  A    between atoms: _642  and  _643
REMARK  251  A    between atoms: _648  and  _649
REMARK  252  A    between atoms: _651  and  _653
REMARK  253  A    between atoms: _653  and  _654
REMARK  254  A    between atoms: _653  and  _656
REMARK  255  A    between atoms: _656  and  _657
REMARK  256  A    between atoms: _662  and  _664
REMARK  257  A    between atoms: _664  and  _665
REMARK  258  A    between atoms: _664  and  _667
REMARK  259  A    between atoms: _667  and  _668
REMARK  260  A    between atoms: _671  and  _673
REMARK  261  A    between atoms: _673  and  _674
REMARK  262  A    between atoms: _677  and  _679
REMARK  263  A    between atoms: _679  and  _680
REMARK  264  A    between atoms: _679  and  _682
REMARK  265  A    between atoms: _682  and  _683
REMARK  266  A    between atoms: _686  and  _688
REMARK  267  A    between atoms: _688  and  _689
REMARK  268  A    between atoms: _688  and  _691
REMARK  269  A    between atoms: _694  and  _696
REMARK  270  A    between atoms: _696  and  _697
REMARK  271  A    between atoms: _696  and  _699
REMARK  272  A    between atoms: _699  and  _700
REMARK  273  A    between atoms: _700  and  _701
REMARK  274  A    between atoms: _704  and  _706
REMARK  275  A    between atoms: _706  and  _707
REMARK  276  A    between atoms: _706  and  _709
REMARK  277  A    between atoms: _709  and  _710
REMARK  278  A    between atoms: _715  and  _716
REMARK  279  A    between atoms: _718  and  _720
REMARK  280  A    between atoms: _720  and  _721
REMARK  281  A    between atoms: _720  and  _723
REMARK  282  A    between atoms: _723  and  _724
REMARK  283  A    between atoms: _724  and  _725
REMARK  284  A    between atoms: _725  and  _726
REMARK  285  A    between atoms: _735  and  _737
REMARK  286  A    between atoms: _737  and  _738
REMARK  287  A    between atoms: _737  and  _740
REMARK  288  A    between atoms: _740  and  _741
REMARK  289  A    between atoms: _746  and  _747
REMARK  290  A    between atoms: _749  and  _751
REMARK  291  A    between atoms: _751  and  _752
REMARK  292  A    between atoms: _751  and  _754
REMARK  293  A    between atoms: _754  and  _755
REMARK  294  A    between atoms: _758  and  _760
REMARK  295  A    between atoms: _760  and  _761
REMARK  296  A    between atoms: _760  and  _763
REMARK  297  A    between atoms: _763  and  _764
REMARK  298  A    between atoms: _766  and  _768
REMARK  299  A    between atoms: _768  and  _769
REMARK  300  A    between atoms: _768  and  _771
REMARK  301  A    between atoms: _771  and  _772
REMARK  302  A    between atoms: _778  and  _780
REMARK  303  A    between atoms: _780  and  _781
REMARK  304  A    between atoms: _780  and  _783
REMARK  305  A    between atoms: _783  and  _784
REMARK  306  A    between atoms: _784  and  _785
REMARK                            x       y       z     vdW  Elec       q    Type
REMARK                         _______ _______ _______ _____ _____    ______ ____
ROOT
ATOM      1  CG  LYS A   1      24.299  14.971   4.270  0.00  0.00    -0.000 C 
ENDROOT
BRANCH   1   2
ATOM      2  CB  LYS A   1      23.552  15.665   3.145  0.00  0.00    +0.025 C 
BRANCH   2   3
ATOM      3  CA  LYS A   1      22.957  17.025   3.539  0.00  0.00    +0.133 C 
BRANCH   3   4
ATOM      4  N   LYS A   1      22.370  17.686   2.376  0.00  0.00    -0.239 NA
ATOM      5  H   LYS A   1      22.358  17.182   1.467  0.00  0.00    +0.142 HD
ENDBRANCH   3   4
BRANCH   3   6
ATOM      6  C   LYS A   1      24.029  17.915   4.180  0.00  0.00    +0.224 C 
ATOM      7  O   LYS A   1      23.986  18.184   5.374  0.00  0.00    -0.287 OA
ENDBRANCH   3   6
ENDBRANCH   2   3
ENDBRANCH   1   2
BRANCH   1   8
ATOM      8  CD  LYS A   1      25.103  13.765   3.809  0.00  0.00    -0.024 C 
BRANCH   8   9
ATOM      9  CE  LYS A   1      25.888  13.219   5.000  0.00  0.00    -0.086 C 
BRANCH   9  10
ATOM     10  NZ  LYS A   1      26.534  11.907   4.719  0.00  0.00    +0.380 N 
ATOM     11  HZ1 LYS A   1      27.051  11.589   5.563  0.00  0.00    -0.089 HD
ATOM     12  HZ2 LYS A   1      25.804  11.208   4.474  0.00  0.00    -0.089 HD
ATOM     13  HZ3 LYS A   1      27.197  12.011   3.924  0.00  0.00    -0.089 HD
ENDBRANCH   9  10
ENDBRANCH   8   9
ENDBRANCH   1   8
TORSDOF 7
REMARK  Name = ../refined-set-2016/4ca7/4ca7_pocket.pdb
REMARK  306 active torsions:
REMARK  status: ('A' for Active; 'I' for Inactive)
REMARK    1  A    between atoms: _1  and  _3
REMARK    2  A    between atoms: _3  and  _4
REMARK    3  A    between atoms: _3  and  _6
REMARK    4  A    between atoms: _6  and  _7
REMARK    5  A    between atoms: _7  and  _8
REMARK    6  A    between atoms: _8  and  _9
REMARK    7  A    between atoms: _9  and  _10
REMARK    8  A    between atoms: _14  and  _16
REMARK    9  A    between atoms: _16  and  _17
REMARK   10  A    between atoms: _16  and  _19
REMARK   11  A    between atoms: _19  and  _20
REMARK   12  A    between atoms: _20  and  _21
REMARK   13  A    between atoms: _24  and  _26
REMARK   14  A    between atoms: _26  and  _27
REMARK   15  A    between atoms: _26  and  _29
REMARK   16  A    between atoms: _29  and  _30
REMARK   17  A    between atoms: _30  and  _31
REMARK   18  A    between atoms: _34  and  _36
REMARK   19  A    between atoms: _36  and  _37
REMARK   20  A    between atoms: _36  and  _39
REMARK   21  A    between atoms: _39  and  _40
REMARK   22  A    between atoms: _45  and  _47
REMARK   23  A    between atoms: _47  and  _48
REMARK   24  A    between atoms: _47  and  _50
REMARK   25  A    between atoms: _50  and  _51
REMARK   26  A    between atoms: _61  and  _63
REMARK   27  A    between atoms: _63  and  _64
REMARK   28  A    between atoms: _63  and  _66
REMARK   29  A    between atoms: _66  and  _67
REMARK   30  A    between atoms: _67  and  _68
REMARK   31  A    between atoms: _73  and  _75
REMARK   32  A    between atoms: _75  and  _76
REMARK   33  A    between atoms: _75  and  _78
REMARK   34  A    between atoms: _78  and  _79
REMARK   35  A    between atoms: _79  and  _80
REMARK   36  A    between atoms: _85  and  _87
REMARK   37  A    between atoms: _87  and  _88
REMARK   38  A    between atoms: _87  and  _90
REMARK   39  A    between atoms: _90  and  _91
REMARK   40  A    between atoms: _93  and  _95
REMARK   41  A    between atoms: _95  and  _96
REMARK   42  A    between atoms: _95  and  _98
REMARK   43  A    between atoms: _101  and  _103
REMARK   44  A    between atoms: _103  and  _104
REMARK   45  A    between atoms: _103  and  _106
REMARK   46  A    between atoms: _108  and  _110
REMARK   47  A    between atoms: _110  and  _111
REMARK   48  A    between atoms: _110  and  _113
REMARK   49  A    between atoms: _113  and  _114
REMARK   50  A    between atoms: _119  and  _121
REMARK   51  A    between atoms: _121  and  _122
REMARK   52  A    between atoms: _125  and  _127
REMARK   53  A    between atoms: _127  and  _128
REMARK   54  A    between atoms: _127  and  _130
REMARK   55  A    between atoms: _130  and  _131
REMARK   56  A    between atoms: _133  and  _135
REMARK   57  A    between atoms: _135  and  _136
REMARK   58  A    between atoms: _139  and  _141
REMARK   59  A    between atoms: _141  and  _142
REMARK   60  A    between atoms: _141  and  _144
REMARK   61  A    between atoms: _144  and  _145
REMARK   62  A    between atoms: _155  and  _157
REMARK   63  A    between atoms: _157  and  _158
REMARK   64  A    between atoms: _157  and  _160
REMARK   65  A    between atoms: _160  and  _161
REMARK   66  A    between atoms: _164  and  _166
REMARK   67  A    between atoms: _166  and  _167
REMARK   68  A    between atoms: _166  and  _169
REMARK   69  A    between atoms: _169  and  _170
REMARK   70  A    between atoms: _175  and  _176
REMARK   71  A    between atoms: _178  and  _180
REMARK   72  A    between atoms: _180  and  _181
REMARK   73  A    between atoms: _180  and  _183
REMARK   74  A    between atoms: _183  and  _184
REMARK   75  A    between atoms: _184  and  _185
REMARK   76  A    between atoms: _185  and  _186
REMARK   77  A    between atoms: _195  and  _197
REMARK   78  A    between atoms: _197  and  _198
REMARK   79  A    between atoms: _197  and  _200
REMARK   80  A    between atoms: _200  and  _201
REMARK   81  A    between atoms: _204  and  _206
REMARK   82  A    between atoms: _206  and  _207
REMARK   83  A    between atoms: _206  and  _209
REMARK   84  A    between atoms: _209  and  _210
REMARK   85  A    between atoms: _210  and  _211
REMARK   86  A    between atoms: _211  and  _212
REMARK   87  A    between atoms: _212  and  _213
REMARK   88  A    between atoms: _217  and  _219
REMARK   89  A    between atoms: _219  and  _220
REMARK   90  A    between atoms: _219  and  _222
REMARK   91  A    between atoms: _222  and  _223
REMARK   92  A    between atoms: _223  and  _224
REMARK   93  A    between atoms: _229  and  _231
REMARK   94  A    between atoms: _231  and  _232
REMARK   95  A    between atoms: _231  and  _234
REMARK   96  A    between atoms: _234  and  _235
REMARK   97  A    between atoms: _235  and  _236
REMARK   98  A    between atoms: _236  and  _237
REMARK   99  A    between atoms: _246  and  _248
REMARK  100  A    between atoms: _248  and  _249
REMARK  101  A    between atoms: _248  and  _251
REMARK  102  A    between atoms: _251  and  _252
REMARK  103  A    between atoms: _252  and  _253
REMARK  104  A    between atoms: _258  and  _260
REMARK  105  A    between atoms: _260  and  _261
REMARK  106  A    between atoms: _260  and  _263
REMARK  107  A    between atoms: _263  and  _264
REMARK  108  A    between atoms: _267  and  _269
REMARK  109  A    between atoms: _269  and  _270
REMARK  110  A    between atoms: _269  and  _272
REMARK  111  A    between atoms: _272  and  _273
REMARK  112  A    between atoms: _273  and  _274
REMARK  113  A    between atoms: _279  and  _281
REMARK  114  A    between atoms: _281  and  _282
REMARK  115  A    between atoms: _281  and  _284
REMARK  116  A    between atoms: _284  and  _285
REMARK  117  A    between atoms: _288  and  _290
REMARK  118  A    between atoms: _290  and  _291
REMARK  119  A    between atoms: _290  and  _293
REMARK  120  A    between atoms: _293  and  _294
REMARK  121  A    between atoms: _300  and  _302
REMARK  122  A    between atoms: _302  and  _303
REMARK  123  A    between atoms: _302  and  _305
REMARK  124  A    between atoms: _305  and  _306
REMARK  125  A    between atoms: _309  and  _311
REMARK  126  A    between atoms: _311  and  _312
REMARK  127  A    between atoms: _311  and  _314
REMARK  128  A    between atoms: _317  and  _319
REMARK  129  A    between atoms: _319  and  _320
REMARK  130  A    between atoms: _319  and  _322
REMARK  131  A    between atoms: _322  and  _323
REMARK  132  A    between atoms: _328  and  _330
REMARK  133  A    between atoms: _341  and  _344
REMARK  134  A    between atoms: _344  and  _345
REMARK  135  A    between atoms: _345  and  _346
REMARK  136  A    between atoms: _351  and  _354
REMARK  137  A    between atoms: _354  and  _355
REMARK  138  A    between atoms: _365  and  _366
REMARK  139  A    between atoms: _374  and  _376
REMARK  140  A    between atoms: _376  and  _377
REMARK  141  A    between atoms: _376  and  _379
REMARK  142  A    between atoms: _379  and  _380
REMARK  143  A    between atoms: _383  and  _385
REMARK  144  A    between atoms: _385  and  _386
REMARK  145  A    between atoms: _385  and  _388
REMARK  146  A    between atoms: _388  and  _389
REMARK  147  A    between atoms: _394  and  _395
REMARK  148  A    between atoms: _397  and  _399
REMARK  149  A    between atoms: _399  and  _400
REMARK  150  A    between atoms: _399  and  _402
REMARK  151  A    between atoms: _402  and  _403
REMARK  152  A    between atoms: _409  and  _411
REMARK  153  A    between atoms: _411  and  _412
REMARK  154  A    between atoms: _411  and  _414
REMARK  155  A    between atoms: _414  and  _415
REMARK  156  A    between atoms: _420  and  _421
REMARK  157  A    between atoms: _423  and  _425
REMARK  158  A    between atoms: _425  and  _426
REMARK  159  A    between atoms: _425  and  _428
REMARK  160  A    between atoms: _428  and  _429
REMARK  161  A    between atoms: _429  and  _430
REMARK  162  A    between atoms: _430  and  _431
REMARK  163  A    between atoms: _440  and  _442
REMARK  164  A    between atoms: _442  and  _443
REMARK  165  A    between atoms: _442  and  _445
REMARK  166  A    between atoms: _445  and  _446
REMARK  167  A    between atoms: _449  and  _451
REMARK  168  A    between atoms: _451  and  _452
REMARK  169  A    between atoms: _454  and  _456
REMARK  170  A    between atoms: _456  and  _457
REMARK  171  A    between atoms: _456  and  _459
REMARK  172  A    between atoms: _459  and  _460
REMARK  173  A    between atoms: _466  and  _467
REMARK  174  A    between atoms: _472  and  _474
REMARK  175  A    between atoms: _474  and  _475
REMARK  176  A    between atoms: _477  and  _479
REMARK  177  A    between atoms: _479  and  _480
REMARK  178  A    between atoms: _479  and  _482
REMARK  179  A    between atoms: _482  and  _483
REMARK  180  A    between atoms: _489  and  _491
REMARK  181  A    between atoms: _491  and  _492
REMARK  182  A    between atoms: _491  and  _494
REMARK  183  A    between atoms: _494  and  _495
REMARK  184  A    between atoms: _500  and  _502
REMARK  185  A    between atoms: _502  and  _503
REMARK  186  A    between atoms: _502  and  _505
REMARK  187  A    between atoms: _505  and  _506
REMARK  188  A    between atoms: _506  and  _507
REMARK  189  A    between atoms: _507  and  _508
REMARK  190  A    between atoms: _508  and  ZN_790
REMARK  191  A    between atoms: _510  and  _512
REMARK  192  A    between atoms: _512  and  _513
REMARK  193  A    between atoms: _516  and  _518
REMARK  194  A    between atoms: _518  and  _519
REMARK  195  A    between atoms: _521  and  _523
REMARK  196  A    between atoms: _523  and  _524
REMARK  197  A    between atoms: _523  and  _526
REMARK  198  A    between atoms: _526  and  _527
REMARK  199  A    between atoms: _530  and  _532
REMARK  200  A    between atoms: _532  and  _533
REMARK  201  A    between atoms: _532  and  _535
REMARK  202  A    between atoms: _538  and  _540
REMARK  203  A    between atoms: _540  and  _541
REMARK  204  A    between atoms: _540  and  _543
REMARK  205  A    between atoms: _543  and  _544
REMARK  206  A    between atoms: _546  and  _548
REMARK  207  A    between atoms: _548  and  _549
REMARK  208  A    between atoms: _548  and  _551
REMARK  209  A    between atoms: _551  and  _552
REMARK  210  A    between atoms: _555  and  _557
REMARK  211  A    between atoms: _557  and  _558
REMARK  212  A    between atoms: _557  and  _560
REMARK  213  A    between atoms: _560  and  _561
REMARK  214  A    between atoms: _563  and  _565
REMARK  215  A    between atoms: _565  and  _566
REMARK  216  A    between atoms: _565  and  _568
REMARK  217  A    between atoms: _568  and  _569
REMARK  218  A    between atoms: _572  and  _574
REMARK  219  A    between atoms: _574  and  _575
REMARK  220  A    between atoms: _574  and  _577
REMARK  221  A    between atoms: _577  and  _578
REMARK  222  A    between atoms: _578  and  _579
REMARK  223  A    between atoms: _579  and  _580
REMARK  224  A    between atoms: _580  and  _581
REMARK  225  A    between atoms: _585  and  _587
REMARK  226  A    between atoms: _587  and  _588
REMARK  227  A    between atoms: _587  and  _590
REMARK  228  A    between atoms: _590  and  _591
REMARK  229  A    between atoms: _597  and  _599
REMARK  230  A    between atoms: _599  and  _600
REMARK  231  A    between atoms: _599  and  _602
REMARK  232  A    between atoms: _602  and  _603
REMARK  233  A    between atoms: _609  and  _611
REMARK  234  A    between atoms: _611  and  _612
REMARK  235  A    between atoms: _615  and  _617
REMARK  236  A    between atoms: _617  and  _618
REMARK  237  A    between atoms: _617  and  _620
REMARK  238  A    between atoms: _620  and  _621
REMARK  239  A    between atoms: _621  and  _622
REMARK  240  A    between atoms: _624  and  _626
REMARK  241  A    between atoms: _626  and  _627
REMARK  242  A    between atoms: _626  and  _629
REMARK  243  A    between atoms: _629  and  _630
REMARK  244  A    between atoms: _630  and  _631
REMARK  245  A    between atoms: _631  and  _632
REMARK  246  A    between atoms: _632  and  _633
REMARK  247  A    between atoms: _637  and  _639
REMARK  248  A    between atoms: _639  and  _640
REMARK  249  A    between atoms: _639  and  _642
REMARK  250  A    between atoms: _642  and  _643
REMARK  251  A    between atoms: _648  and  _649
REMARK  252  A    between atoms: _651  and  _653
REMARK  253  A    between atoms: _653  and  _654
REMARK  254  A    between atoms: _653  and  _656
REMARK  255  A    between atoms: _656  and  _657
REMARK  256  A    between atoms: _662  and  _664
REMARK  257  A    between atoms: _664  and  _665
REMARK  258  A    between atoms: _664  and  _667
REMARK  259  A    between atoms: _667  and  _668
REMARK  260  A    between atoms: _671  and  _673
REMARK  261  A    between atoms: _673  and  _674
REMARK  262  A    between atoms: _677  and  _679
REMARK  263  A    between atoms: _679  and  _680
REMARK  264  A    between atoms: _679  and  _682
REMARK  265  A    between atoms: _682  and  _683
REMARK  266  A    between atoms: _686  and  _688
REMARK  267  A    between atoms: _688  and  _689
REMARK  268  A    between atoms: _688  and  _691
REMARK  269  A    between atoms: _694  and  _696
REMARK  270  A    between atoms: _696  and  _697
REMARK  271  A    between atoms: _696  and  _699
REMARK  272  A    between atoms: _699  and  _700
REMARK  273  A    between atoms: _700  and  _701
REMARK  274  A    between atoms: _704  and  _706
REMARK  275  A    between atoms: _706  and  _707
REMARK  276  A    between atoms: _706  and  _709
REMARK  277  A    between atoms: _709  and  _710
REMARK  278  A    between atoms: _715  and  _716
REMARK  279  A    between atoms: _718  and  _720
REMARK  280  A    between atoms: _720  and  _721
REMARK  281  A    between atoms: _720  and  _723
REMARK  282  A    between atoms: _723  and  _724
REMARK  283  A    between atoms: _724  and  _725
REMARK  284  A    between atoms: _725  and  _726
REMARK  285  A    between atoms: _735  and  _737
REMARK  286  A    between atoms: _737  and  _738
REMARK  287  A    between atoms: _737  and  _740
REMARK  288  A    between atoms: _740  and  _741
REMARK  289  A    between atoms: _746  and  _747
REMARK  290  A    between atoms: _749  and  _751
REMARK  291  A    between atoms: _751  and  _752
REMARK  292  A    between atoms: _751  and  _754
REMARK  293  A    between atoms: _754  and  _755
REMARK  294  A    between atoms: _758  and  _760
REMARK  295  A    between atoms: _760  and  _761
REMARK  296  A    between atoms: _760  and  _763
REMARK  297  A    between atoms: _763  and  _764
REMARK  298  A    between atoms: _766  and  _768
REMARK  299  A    between atoms: _768  and  _769
REMARK  300  A    between atoms: _768  and  _771
REMARK  301  A    between atoms: _771  and  _772
REMARK  302  A    between atoms: _778  and  _780
REMARK  303  A    between atoms: _780  and  _781
REMARK  304  A    between atoms: _780  and  _783
REMARK  305  A    between atoms: _783  and  _784
REMARK  306  A    between atoms: _784  and  _785
REMARK                            x       y       z     vdW  Elec       q    Type
REMARK                         _______ _______ _______ _____ _____    ______ ____
ROOT
ATOM      1  CA  GLU A   1      31.558   7.823   0.423  0.00  0.00    +0.134 C 
ENDROOT
BRANCH   1   2
ATOM      2  N   GLU A   1      32.642   8.782   0.237  0.00  0.00    -0.239 NA
ATOM      3  H   GLU A   1      32.559   9.742   0.628  0.00  0.00    +0.142 HD
ENDBRANCH   1   2
BRANCH   1   4
ATOM      4  C   GLU A   1      30.839   7.541  -0.905  0.00  0.00    +0.224 C 
ATOM      5  O   GLU A   1      30.536   6.384  -1.200  0.00  0.00    -0.287 OA
ENDBRANCH   1   4
BRANCH   1   6
ATOM      6  CB  GLU A   1      30.579   8.239   1.538  0.00  0.00    +0.037 C 
BRANCH   6   7
ATOM      7  CG  GLU A   1      29.424   7.248   1.703  0.00  0.00    +0.116 C 
BRANCH   7   8
ATOM      8  CD  GLU A   1      28.895   7.091   3.124  0.00  0.00    +0.365 C 
ATOM      9  OE2 GLU A   1      29.360   7.799   4.054  0.00  0.00    -0.246 OA
ATOM     10  OE1 GLU A   1      28.003   6.233   3.312  0.00  0.00    -0.246 OA
ENDBRANCH   7   8
ENDBRANCH   6   7
ENDBRANCH   1   6
TORSDOF 5
REMARK  Name = ../refined-set-2016/4ca7/4ca7_pocket.pdb
REMARK  306 active torsions:
REMARK  status: ('A' for Active; 'I' for Inactive)
REMARK    1  A    between atoms: _1  and  _3
REMARK    2  A    between atoms: _3  and  _4
REMARK    3  A    between atoms: _3  and  _6
REMARK    4  A    between atoms: _6  and  _7
REMARK    5  A    between atoms: _7  and  _8
REMARK    6  A    between atoms: _8  and  _9
REMARK    7  A    between atoms: _9  and  _10
REMARK    8  A    between atoms: _14  and  _16
REMARK    9  A    between atoms: _16  and  _17
REMARK   10  A    between atoms: _16  and  _19
REMARK   11  A    between atoms: _19  and  _20
REMARK   12  A    between atoms: _20  and  _21
REMARK   13  A    between atoms: _24  and  _26
REMARK   14  A    between atoms: _26  and  _27
REMARK   15  A    between atoms: _26  and  _29
REMARK   16  A    between atoms: _29  and  _30
REMARK   17  A    between atoms: _30  and  _31
REMARK   18  A    between atoms: _34  and  _36
REMARK   19  A    between atoms: _36  and  _37
REMARK   20  A    between atoms: _36  and  _39
REMARK   21  A    between atoms: _39  and  _40
REMARK   22  A    between atoms: _45  and  _47
REMARK   23  A    between atoms: _47  and  _48
REMARK   24  A    between atoms: _47  and  _50
REMARK   25  A    between atoms: _50  and  _51
REMARK   26  A    between atoms: _61  and  _63
REMARK   27  A    between atoms: _63  and  _64
REMARK   28  A    between atoms: _63  and  _66
REMARK   29  A    between atoms: _66  and  _67
REMARK   30  A    between atoms: _67  and  _68
REMARK   31  A    between atoms: _73  and  _75
REMARK   32  A    between atoms: _75  and  _76
REMARK   33  A    between atoms: _75  and  _78
REMARK   34  A    between atoms: _78  and  _79
REMARK   35  A    between atoms: _79  and  _80
REMARK   36  A    between atoms: _85  and  _87
REMARK   37  A    between atoms: _87  and  _88
REMARK   38  A    between atoms: _87  and  _90
REMARK   39  A    between atoms: _90  and  _91
REMARK   40  A    between atoms: _93  and  _95
REMARK   41  A    between atoms: _95  and  _96
REMARK   42  A    between atoms: _95  and  _98
REMARK   43  A    between atoms: _101  and  _103
REMARK   44  A    between atoms: _103  and  _104
REMARK   45  A    between atoms: _103  and  _106
REMARK   46  A    between atoms: _108  and  _110
REMARK   47  A    between atoms: _110  and  _111
REMARK   48  A    between atoms: _110  and  _113
REMARK   49  A    between atoms: _113  and  _114
REMARK   50  A    between atoms: _119  and  _121
REMARK   51  A    between atoms: _121  and  _122
REMARK   52  A    between atoms: _125  and  _127
REMARK   53  A    between atoms: _127  and  _128
REMARK   54  A    between atoms: _127  and  _130
REMARK   55  A    between atoms: _130  and  _131
REMARK   56  A    between atoms: _133  and  _135
REMARK   57  A    between atoms: _135  and  _136
REMARK   58  A    between atoms: _139  and  _141
REMARK   59  A    between atoms: _141  and  _142
REMARK   60  A    between atoms: _141  and  _144
REMARK   61  A    between atoms: _144  and  _145
REMARK   62  A    between atoms: _155  and  _157
REMARK   63  A    between atoms: _157  and  _158
REMARK   64  A    between atoms: _157  and  _160
REMARK   65  A    between atoms: _160  and  _161
REMARK   66  A    between atoms: _164  and  _166
REMARK   67  A    between atoms: _166  and  _167
REMARK   68  A    between atoms: _166  and  _169
REMARK   69  A    between atoms: _169  and  _170
REMARK   70  A    between atoms: _175  and  _176
REMARK   71  A    between atoms: _178  and  _180
REMARK   72  A    between atoms: _180  and  _181
REMARK   73  A    between atoms: _180  and  _183
REMARK   74  A    between atoms: _183  and  _184
REMARK   75  A    between atoms: _184  and  _185
REMARK   76  A    between atoms: _185  and  _186
REMARK   77  A    between atoms: _195  and  _197
REMARK   78  A    between atoms: _197  and  _198
REMARK   79  A    between atoms: _197  and  _200
REMARK   80  A    between atoms: _200  and  _201
REMARK   81  A    between atoms: _204  and  _206
REMARK   82  A    between atoms: _206  and  _207
REMARK   83  A    between atoms: _206  and  _209
REMARK   84  A    between atoms: _209  and  _210
REMARK   85  A    between atoms: _210  and  _211
REMARK   86  A    between atoms: _211  and  _212
REMARK   87  A    between atoms: _212  and  _213
REMARK   88  A    between atoms: _217  and  _219
REMARK   89  A    between atoms: _219  and  _220
REMARK   90  A    between atoms: _219  and  _222
REMARK   91  A    between atoms: _222  and  _223
REMARK   92  A    between atoms: _223  and  _224
REMARK   93  A    between atoms: _229  and  _231
REMARK   94  A    between atoms: _231  and  _232
REMARK   95  A    between atoms: _231  and  _234
REMARK   96  A    between atoms: _234  and  _235
REMARK   97  A    between atoms: _235  and  _236
REMARK   98  A    between atoms: _236  and  _237
REMARK   99  A    between atoms: _246  and  _248
REMARK  100  A    between atoms: _248  and  _249
REMARK  101  A    between atoms: _248  and  _251
REMARK  102  A    between atoms: _251  and  _252
REMARK  103  A    between atoms: _252  and  _253
REMARK  104  A    between atoms: _258  and  _260
REMARK  105  A    between atoms: _260  and  _261
REMARK  106  A    between atoms: _260  and  _263
REMARK  107  A    between atoms: _263  and  _264
REMARK  108  A    between atoms: _267  and  _269
REMARK  109  A    between atoms: _269  and  _270
REMARK  110  A    between atoms: _269  and  _272
REMARK  111  A    between atoms: _272  and  _273
REMARK  112  A    between atoms: _273  and  _274
REMARK  113  A    between atoms: _279  and  _281
REMARK  114  A    between atoms: _281  and  _282
REMARK  115  A    between atoms: _281  and  _284
REMARK  116  A    between atoms: _284  and  _285
REMARK  117  A    between atoms: _288  and  _290
REMARK  118  A    between atoms: _290  and  _291
REMARK  119  A    between atoms: _290  and  _293
REMARK  120  A    between atoms: _293  and  _294
REMARK  121  A    between atoms: _300  and  _302
REMARK  122  A    between atoms: _302  and  _303
REMARK  123  A    between atoms: _302  and  _305
REMARK  124  A    between atoms: _305  and  _306
REMARK  125  A    between atoms: _309  and  _311
REMARK  126  A    between atoms: _311  and  _312
REMARK  127  A    between atoms: _311  and  _314
REMARK  128  A    between atoms: _317  and  _319
REMARK  129  A    between atoms: _319  and  _320
REMARK  130  A    between atoms: _319  and  _322
REMARK  131  A    between atoms: _322  and  _323
REMARK  132  A    between atoms: _328  and  _330
REMARK  133  A    between atoms: _341  and  _344
REMARK  134  A    between atoms: _344  and  _345
REMARK  135  A    between atoms: _345  and  _346
REMARK  136  A    between atoms: _351  and  _354
REMARK  137  A    between atoms: _354  and  _355
REMARK  138  A    between atoms: _365  and  _366
REMARK  139  A    between atoms: _374  and  _376
REMARK  140  A    between atoms: _376  and  _377
REMARK  141  A    between atoms: _376  and  _379
REMARK  142  A    between atoms: _379  and  _380
REMARK  143  A    between atoms: _383  and  _385
REMARK  144  A    between atoms: _385  and  _386
REMARK  145  A    between atoms: _385  and  _388
REMARK  146  A    between atoms: _388  and  _389
REMARK  147  A    between atoms: _394  and  _395
REMARK  148  A    between atoms: _397  and  _399
REMARK  149  A    between atoms: _399  and  _400
REMARK  150  A    between atoms: _399  and  _402
REMARK  151  A    between atoms: _402  and  _403
REMARK  152  A    between atoms: _409  and  _411
REMARK  153  A    between atoms: _411  and  _412
REMARK  154  A    between atoms: _411  and  _414
REMARK  155  A    between atoms: _414  and  _415
REMARK  156  A    between atoms: _420  and  _421
REMARK  157  A    between atoms: _423  and  _425
REMARK  158  A    between atoms: _425  and  _426
REMARK  159  A    between atoms: _425  and  _428
REMARK  160  A    between atoms: _428  and  _429
REMARK  161  A    between atoms: _429  and  _430
REMARK  162  A    between atoms: _430  and  _431
REMARK  163  A    between atoms: _440  and  _442
REMARK  164  A    between atoms: _442  and  _443
REMARK  165  A    between atoms: _442  and  _445
REMARK  166  A    between atoms: _445  and  _446
REMARK  167  A    between atoms: _449  and  _451
REMARK  168  A    between atoms: _451  and  _452
REMARK  169  A    between atoms: _454  and  _456
REMARK  170  A    between atoms: _456  and  _457
REMARK  171  A    between atoms: _456  and  _459
REMARK  172  A    between atoms: _459  and  _460
REMARK  173  A    between atoms: _466  and  _467
REMARK  174  A    between atoms: _472  and  _474
REMARK  175  A    between atoms: _474  and  _475
REMARK  176  A    between atoms: _477  and  _479
REMARK  177  A    between atoms: _479  and  _480
REMARK  178  A    between atoms: _479  and  _482
REMARK  179  A    between atoms: _482  and  _483
REMARK  180  A    between atoms: _489  and  _491
REMARK  181  A    between atoms: _491  and  _492
REMARK  182  A    between atoms: _491  and  _494
REMARK  183  A    between atoms: _494  and  _495
REMARK  184  A    between atoms: _500  and  _502
REMARK  185  A    between atoms: _502  and  _503
REMARK  186  A    between atoms: _502  and  _505
REMARK  187  A    between atoms: _505  and  _506
REMARK  188  A    between atoms: _506  and  _507
REMARK  189  A    between atoms: _507  and  _508
REMARK  190  A    between atoms: _508  and  ZN_790
REMARK  191  A    between atoms: _510  and  _512
REMARK  192  A    between atoms: _512  and  _513
REMARK  193  A    between atoms: _516  and  _518
REMARK  194  A    between atoms: _518  and  _519
REMARK  195  A    between atoms: _521  and  _523
REMARK  196  A    between atoms: _523  and  _524
REMARK  197  A    between atoms: _523  and  _526
REMARK  198  A    between atoms: _526  and  _527
REMARK  199  A    between atoms: _530  and  _532
REMARK  200  A    between atoms: _532  and  _533
REMARK  201  A    between atoms: _532  and  _535
REMARK  202  A    between atoms: _538  and  _540
REMARK  203  A    between atoms: _540  and  _541
REMARK  204  A    between atoms: _540  and  _543
REMARK  205  A    between atoms: _543  and  _544
REMARK  206  A    between atoms: _546  and  _548
REMARK  207  A    between atoms: _548  and  _549
REMARK  208  A    between atoms: _548  and  _551
REMARK  209  A    between atoms: _551  and  _552
REMARK  210  A    between atoms: _555  and  _557
REMARK  211  A    between atoms: _557  and  _558
REMARK  212  A    between atoms: _557  and  _560
REMARK  213  A    between atoms: _560  and  _561
REMARK  214  A    between atoms: _563  and  _565
REMARK  215  A    between atoms: _565  and  _566
REMARK  216  A    between atoms: _565  and  _568
REMARK  217  A    between atoms: _568  and  _569
REMARK  218  A    between atoms: _572  and  _574
REMARK  219  A    between atoms: _574  and  _575
REMARK  220  A    between atoms: _574  and  _577
REMARK  221  A    between atoms: _577  and  _578
REMARK  222  A    between atoms: _578  and  _579
REMARK  223  A    between atoms: _579  and  _580
REMARK  224  A    between atoms: _580  and  _581
REMARK  225  A    between atoms: _585  and  _587
REMARK  226  A    between atoms: _587  and  _588
REMARK  227  A    between atoms: _587  and  _590
REMARK  228  A    between atoms: _590  and  _591
REMARK  229  A    between atoms: _597  and  _599
REMARK  230  A    between atoms: _599  and  _600
REMARK  231  A    between atoms: _599  and  _602
REMARK  232  A    between atoms: _602  and  _603
REMARK  233  A    between atoms: _609  and  _611
REMARK  234  A    between atoms: _611  and  _612
REMARK  235  A    between atoms: _615  and  _617
REMARK  236  A    between atoms: _617  and  _618
REMARK  237  A    between atoms: _617  and  _620
REMARK  238  A    between atoms: _620  and  _621
REMARK  239  A    between atoms: _621  and  _622
REMARK  240  A    between atoms: _624  and  _626
REMARK  241  A    between atoms: _626  and  _627
REMARK  242  A    between atoms: _626  and  _629
REMARK  243  A    between atoms: _629  and  _630
REMARK  244  A    between atoms: _630  and  _631
REMARK  245  A    between atoms: _631  and  _632
REMARK  246  A    between atoms: _632  and  _633
REMARK  247  A    between atoms: _637  and  _639
REMARK  248  A    between atoms: _639  and  _640
REMARK  249  A    between atoms: _639  and  _642
REMARK  250  A    between atoms: _642  and  _643
REMARK  251  A    between atoms: _648  and  _649
REMARK  252  A    between atoms: _651  and  _653
REMARK  253  A    between atoms: _653  and  _654
REMARK  254  A    between atoms: _653  and  _656
REMARK  255  A    between atoms: _656  and  _657
REMARK  256  A    between atoms: _662  and  _664
REMARK  257  A    between atoms: _664  and  _665
REMARK  258  A    between atoms: _664  and  _667
REMARK  259  A    between atoms: _667  and  _668
REMARK  260  A    between atoms: _671  and  _673
REMARK  261  A    between atoms: _673  and  _674
REMARK  262  A    between atoms: _677  and  _679
REMARK  263  A    between atoms: _679  and  _680
REMARK  264  A    between atoms: _679  and  _682
REMARK  265  A    between atoms: _682  and  _683
REMARK  266  A    between atoms: _686  and  _688
REMARK  267  A    between atoms: _688  and  _689
REMARK  268  A    between atoms: _688  and  _691
REMARK  269  A    between atoms: _694  and  _696
REMARK  270  A    between atoms: _696  and  _697
REMARK  271  A    between atoms: _696  and  _699
REMARK  272  A    between atoms: _699  and  _700
REMARK  273  A    between atoms: _700  and  _701
REMARK  274  A    between atoms: _704  and  _706
REMARK  275  A    between atoms: _706  and  _707
REMARK  276  A    between atoms: _706  and  _709
REMARK  277  A    between atoms: _709  and  _710
REMARK  278  A    between atoms: _715  and  _716
REMARK  279  A    between atoms: _718  and  _720
REMARK  280  A    between atoms: _720  and  _721
REMARK  281  A    between atoms: _720  and  _723
REMARK  282  A    between atoms: _723  and  _724
REMARK  283  A    between atoms: _724  and  _725
REMARK  284  A    between atoms: _725  and  _726
REMARK  285  A    between atoms: _735  and  _737
REMARK  286  A    between atoms: _737  and  _738
REMARK  287  A    between atoms: _737  and  _740
REMARK  288  A    between atoms: _740  and  _741
REMARK  289  A    between atoms: _746  and  _747
REMARK  290  A    between atoms: _749  and  _751
REMARK  291  A    between atoms: _751  and  _752
REMARK  292  A    between atoms: _751  and  _754
REMARK  293  A    between atoms: _754  and  _755
REMARK  294  A    between atoms: _758  and  _760
REMARK  295  A    between atoms: _760  and  _761
REMARK  296  A    between atoms: _760  and  _763
REMARK  297  A    between atoms: _763  and  _764
REMARK  298  A    between atoms: _766  and  _768
REMARK  299  A    between atoms: _768  and  _769
REMARK  300  A    between atoms: _768  and  _771
REMARK  301  A    between atoms: _771  and  _772
REMARK  302  A    between atoms: _778  and  _780
REMARK  303  A    between atoms: _780  and  _781
REMARK  304  A    between atoms: _780  and  _783
REMARK  305  A    between atoms: _783  and  _784
REMARK  306  A    between atoms: _784  and  _785
REMARK                            x       y       z     vdW  Elec       q    Type
REMARK                         _______ _______ _______ _____ _____    ______ ____
ROOT
ATOM      1  CA  GLU A   1      30.783 -10.129  -3.393  0.00  0.00    +0.134 C 
ENDROOT
BRANCH   1   2
ATOM      2  N   GLU A   1      30.769  -9.308  -4.606  0.00  0.00    -0.239 NA
ATOM      3  H   GLU A   1      30.167  -8.461  -4.642  0.00  0.00    +0.142 HD
ENDBRANCH   1   2
BRANCH   1   4
ATOM      4  C   GLU A   1      30.299 -11.555  -3.643  0.00  0.00    +0.224 C 
ATOM      5  O   GLU A   1      30.755 -12.490  -2.973  0.00  0.00    -0.287 OA
ENDBRANCH   1   4
BRANCH   1   6
ATOM      6  CB  GLU A   1      29.992  -9.473  -2.265  0.00  0.00    +0.037 C 
BRANCH   6   7
ATOM      7  CG  GLU A   1      30.766  -8.376  -1.546  0.00  0.00    +0.116 C 
BRANCH   7   8
ATOM      8  CD  GLU A   1      30.198  -8.045  -0.179  0.00  0.00    +0.365 C 
ATOM      9  OE2 GLU A   1      30.988  -7.683   0.726  0.00  0.00    -0.246 OA
ATOM     10  OE1 GLU A   1      28.966  -8.151  -0.001  0.00  0.00    -0.246 OA
ENDBRANCH   7   8
ENDBRANCH   6   7
ENDBRANCH   1   6
TORSDOF 5
REMARK  Name = ../refined-set-2016/4ca7/4ca7_pocket.pdb
REMARK  306 active torsions:
REMARK  status: ('A' for Active; 'I' for Inactive)
REMARK    1  A    between atoms: _1  and  _3
REMARK    2  A    between atoms: _3  and  _4
REMARK    3  A    between atoms: _3  and  _6
REMARK    4  A    between atoms: _6  and  _7
REMARK    5  A    between atoms: _7  and  _8
REMARK    6  A    between atoms: _8  and  _9
REMARK    7  A    between atoms: _9  and  _10
REMARK    8  A    between atoms: _14  and  _16
REMARK    9  A    between atoms: _16  and  _17
REMARK   10  A    between atoms: _16  and  _19
REMARK   11  A    between atoms: _19  and  _20
REMARK   12  A    between atoms: _20  and  _21
REMARK   13  A    between atoms: _24  and  _26
REMARK   14  A    between atoms: _26  and  _27
REMARK   15  A    between atoms: _26  and  _29
REMARK   16  A    between atoms: _29  and  _30
REMARK   17  A    between atoms: _30  and  _31
REMARK   18  A    between atoms: _34  and  _36
REMARK   19  A    between atoms: _36  and  _37
REMARK   20  A    between atoms: _36  and  _39
REMARK   21  A    between atoms: _39  and  _40
REMARK   22  A    between atoms: _45  and  _47
REMARK   23  A    between atoms: _47  and  _48
REMARK   24  A    between atoms: _47  and  _50
REMARK   25  A    between atoms: _50  and  _51
REMARK   26  A    between atoms: _61  and  _63
REMARK   27  A    between atoms: _63  and  _64
REMARK   28  A    between atoms: _63  and  _66
REMARK   29  A    between atoms: _66  and  _67
REMARK   30  A    between atoms: _67  and  _68
REMARK   31  A    between atoms: _73  and  _75
REMARK   32  A    between atoms: _75  and  _76
REMARK   33  A    between atoms: _75  and  _78
REMARK   34  A    between atoms: _78  and  _79
REMARK   35  A    between atoms: _79  and  _80
REMARK   36  A    between atoms: _85  and  _87
REMARK   37  A    between atoms: _87  and  _88
REMARK   38  A    between atoms: _87  and  _90
REMARK   39  A    between atoms: _90  and  _91
REMARK   40  A    between atoms: _93  and  _95
REMARK   41  A    between atoms: _95  and  _96
REMARK   42  A    between atoms: _95  and  _98
REMARK   43  A    between atoms: _101  and  _103
REMARK   44  A    between atoms: _103  and  _104
REMARK   45  A    between atoms: _103  and  _106
REMARK   46  A    between atoms: _108  and  _110
REMARK   47  A    between atoms: _110  and  _111
REMARK   48  A    between atoms: _110  and  _113
REMARK   49  A    between atoms: _113  and  _114
REMARK   50  A    between atoms: _119  and  _121
REMARK   51  A    between atoms: _121  and  _122
REMARK   52  A    between atoms: _125  and  _127
REMARK   53  A    between atoms: _127  and  _128
REMARK   54  A    between atoms: _127  and  _130
REMARK   55  A    between atoms: _130  and  _131
REMARK   56  A    between atoms: _133  and  _135
REMARK   57  A    between atoms: _135  and  _136
REMARK   58  A    between atoms: _139  and  _141
REMARK   59  A    between atoms: _141  and  _142
REMARK   60  A    between atoms: _141  and  _144
REMARK   61  A    between atoms: _144  and  _145
REMARK   62  A    between atoms: _155  and  _157
REMARK   63  A    between atoms: _157  and  _158
REMARK   64  A    between atoms: _157  and  _160
REMARK   65  A    between atoms: _160  and  _161
REMARK   66  A    between atoms: _164  and  _166
REMARK   67  A    between atoms: _166  and  _167
REMARK   68  A    between atoms: _166  and  _169
REMARK   69  A    between atoms: _169  and  _170
REMARK   70  A    between atoms: _175  and  _176
REMARK   71  A    between atoms: _178  and  _180
REMARK   72  A    between atoms: _180  and  _181
REMARK   73  A    between atoms: _180  and  _183
REMARK   74  A    between atoms: _183  and  _184
REMARK   75  A    between atoms: _184  and  _185
REMARK   76  A    between atoms: _185  and  _186
REMARK   77  A    between atoms: _195  and  _197
REMARK   78  A    between atoms: _197  and  _198
REMARK   79  A    between atoms: _197  and  _200
REMARK   80  A    between atoms: _200  and  _201
REMARK   81  A    between atoms: _204  and  _206
REMARK   82  A    between atoms: _206  and  _207
REMARK   83  A    between atoms: _206  and  _209
REMARK   84  A    between atoms: _209  and  _210
REMARK   85  A    between atoms: _210  and  _211
REMARK   86  A    between atoms: _211  and  _212
REMARK   87  A    between atoms: _212  and  _213
REMARK   88  A    between atoms: _217  and  _219
REMARK   89  A    between atoms: _219  and  _220
REMARK   90  A    between atoms: _219  and  _222
REMARK   91  A    between atoms: _222  and  _223
REMARK   92  A    between atoms: _223  and  _224
REMARK   93  A    between atoms: _229  and  _231
REMARK   94  A    between atoms: _231  and  _232
REMARK   95  A    between atoms: _231  and  _234
REMARK   96  A    between atoms: _234  and  _235
REMARK   97  A    between atoms: _235  and  _236
REMARK   98  A    between atoms: _236  and  _237
REMARK   99  A    between atoms: _246  and  _248
REMARK  100  A    between atoms: _248  and  _249
REMARK  101  A    between atoms: _248  and  _251
REMARK  102  A    between atoms: _251  and  _252
REMARK  103  A    between atoms: _252  and  _253
REMARK  104  A    between atoms: _258  and  _260
REMARK  105  A    between atoms: _260  and  _261
REMARK  106  A    between atoms: _260  and  _263
REMARK  107  A    between atoms: _263  and  _264
REMARK  108  A    between atoms: _267  and  _269
REMARK  109  A    between atoms: _269  and  _270
REMARK  110  A    between atoms: _269  and  _272
REMARK  111  A    between atoms: _272  and  _273
REMARK  112  A    between atoms: _273  and  _274
REMARK  113  A    between atoms: _279  and  _281
REMARK  114  A    between atoms: _281  and  _282
REMARK  115  A    between atoms: _281  and  _284
REMARK  116  A    between atoms: _284  and  _285
REMARK  117  A    between atoms: _288  and  _290
REMARK  118  A    between atoms: _290  and  _291
REMARK  119  A    between atoms: _290  and  _293
REMARK  120  A    between atoms: _293  and  _294
REMARK  121  A    between atoms: _300  and  _302
REMARK  122  A    between atoms: _302  and  _303
REMARK  123  A    between atoms: _302  and  _305
REMARK  124  A    between atoms: _305  and  _306
REMARK  125  A    between atoms: _309  and  _311
REMARK  126  A    between atoms: _311  and  _312
REMARK  127  A    between atoms: _311  and  _314
REMARK  128  A    between atoms: _317  and  _319
REMARK  129  A    between atoms: _319  and  _320
REMARK  130  A    between atoms: _319  and  _322
REMARK  131  A    between atoms: _322  and  _323
REMARK  132  A    between atoms: _328  and  _330
REMARK  133  A    between atoms: _341  and  _344
REMARK  134  A    between atoms: _344  and  _345
REMARK  135  A    between atoms: _345  and  _346
REMARK  136  A    between atoms: _351  and  _354
REMARK  137  A    between atoms: _354  and  _355
REMARK  138  A    between atoms: _365  and  _366
REMARK  139  A    between atoms: _374  and  _376
REMARK  140  A    between atoms: _376  and  _377
REMARK  141  A    between atoms: _376  and  _379
REMARK  142  A    between atoms: _379  and  _380
REMARK  143  A    between atoms: _383  and  _385
REMARK  144  A    between atoms: _385  and  _386
REMARK  145  A    between atoms: _385  and  _388
REMARK  146  A    between atoms: _388  and  _389
REMARK  147  A    between atoms: _394  and  _395
REMARK  148  A    between atoms: _397  and  _399
REMARK  149  A    between atoms: _399  and  _400
REMARK  150  A    between atoms: _399  and  _402
REMARK  151  A    between atoms: _402  and  _403
REMARK  152  A    between atoms: _409  and  _411
REMARK  153  A    between atoms: _411  and  _412
REMARK  154  A    between atoms: _411  and  _414
REMARK  155  A    between atoms: _414  and  _415
REMARK  156  A    between atoms: _420  and  _421
REMARK  157  A    between atoms: _423  and  _425
REMARK  158  A    between atoms: _425  and  _426
REMARK  159  A    between atoms: _425  and  _428
REMARK  160  A    between atoms: _428  and  _429
REMARK  161  A    between atoms: _429  and  _430
REMARK  162  A    between atoms: _430  and  _431
REMARK  163  A    between atoms: _440  and  _442
REMARK  164  A    between atoms: _442  and  _443
REMARK  165  A    between atoms: _442  and  _445
REMARK  166  A    between atoms: _445  and  _446
REMARK  167  A    between atoms: _449  and  _451
REMARK  168  A    between atoms: _451  and  _452
REMARK  169  A    between atoms: _454  and  _456
REMARK  170  A    between atoms: _456  and  _457
REMARK  171  A    between atoms: _456  and  _459
REMARK  172  A    between atoms: _459  and  _460
REMARK  173  A    between atoms: _466  and  _467
REMARK  174  A    between atoms: _472  and  _474
REMARK  175  A    between atoms: _474  and  _475
REMARK  176  A    between atoms: _477  and  _479
REMARK  177  A    between atoms: _479  and  _480
REMARK  178  A    between atoms: _479  and  _482
REMARK  179  A    between atoms: _482  and  _483
REMARK  180  A    between atoms: _489  and  _491
REMARK  181  A    between atoms: _491  and  _492
REMARK  182  A    between atoms: _491  and  _494
REMARK  183  A    between atoms: _494  and  _495
REMARK  184  A    between atoms: _500  and  _502
REMARK  185  A    between atoms: _502  and  _503
REMARK  186  A    between atoms: _502  and  _505
REMARK  187  A    between atoms: _505  and  _506
REMARK  188  A    between atoms: _506  and  _507
REMARK  189  A    between atoms: _507  and  _508
REMARK  190  A    between atoms: _508  and  ZN_790
REMARK  191  A    between atoms: _510  and  _512
REMARK  192  A    between atoms: _512  and  _513
REMARK  193  A    between atoms: _516  and  _518
REMARK  194  A    between atoms: _518  and  _519
REMARK  195  A    between atoms: _521  and  _523
REMARK  196  A    between atoms: _523  and  _524
REMARK  197  A    between atoms: _523  and  _526
REMARK  198  A    between atoms: _526  and  _527
REMARK  199  A    between atoms: _530  and  _532
REMARK  200  A    between atoms: _532  and  _533
REMARK  201  A    between atoms: _532  and  _535
REMARK  202  A    between atoms: _538  and  _540
REMARK  203  A    between atoms: _540  and  _541
REMARK  204  A    between atoms: _540  and  _543
REMARK  205  A    between atoms: _543  and  _544
REMARK  206  A    between atoms: _546  and  _548
REMARK  207  A    between atoms: _548  and  _549
REMARK  208  A    between atoms: _548  and  _551
REMARK  209  A    between atoms: _551  and  _552
REMARK  210  A    between atoms: _555  and  _557
REMARK  211  A    between atoms: _557  and  _558
REMARK  212  A    between atoms: _557  and  _560
REMARK  213  A    between atoms: _560  and  _561
REMARK  214  A    between atoms: _563  and  _565
REMARK  215  A    between atoms: _565  and  _566
REMARK  216  A    between atoms: _565  and  _568
REMARK  217  A    between atoms: _568  and  _569
REMARK  218  A    between atoms: _572  and  _574
REMARK  219  A    between atoms: _574  and  _575
REMARK  220  A    between atoms: _574  and  _577
REMARK  221  A    between atoms: _577  and  _578
REMARK  222  A    between atoms: _578  and  _579
REMARK  223  A    between atoms: _579  and  _580
REMARK  224  A    between atoms: _580  and  _581
REMARK  225  A    between atoms: _585  and  _587
REMARK  226  A    between atoms: _587  and  _588
REMARK  227  A    between atoms: _587  and  _590
REMARK  228  A    between atoms: _590  and  _591
REMARK  229  A    between atoms: _597  and  _599
REMARK  230  A    between atoms: _599  and  _600
REMARK  231  A    between atoms: _599  and  _602
REMARK  232  A    between atoms: _602  and  _603
REMARK  233  A    between atoms: _609  and  _611
REMARK  234  A    between atoms: _611  and  _612
REMARK  235  A    between atoms: _615  and  _617
REMARK  236  A    between atoms: _617  and  _618
REMARK  237  A    between atoms: _617  and  _620
REMARK  238  A    between atoms: _620  and  _621
REMARK  239  A    between atoms: _621  and  _622
REMARK  240  A    between atoms: _624  and  _626
REMARK  241  A    between atoms: _626  and  _627
REMARK  242  A    between atoms: _626  and  _629
REMARK  243  A    between atoms: _629  and  _630
REMARK  244  A    between atoms: _630  and  _631
REMARK  245  A    between atoms: _631  and  _632
REMARK  246  A    between atoms: _632  and  _633
REMARK  247  A    between atoms: _637  and  _639
REMARK  248  A    between atoms: _639  and  _640
REMARK  249  A    between atoms: _639  and  _642
REMARK  250  A    between atoms: _642  and  _643
REMARK  251  A    between atoms: _648  and  _649
REMARK  252  A    between atoms: _651  and  _653
REMARK  253  A    between atoms: _653  and  _654
REMARK  254  A    between atoms: _653  and  _656
REMARK  255  A    between atoms: _656  and  _657
REMARK  256  A    between atoms: _662  and  _664
REMARK  257  A    between atoms: _664  and  _665
REMARK  258  A    between atoms: _664  and  _667
REMARK  259  A    between atoms: _667  and  _668
REMARK  260  A    between atoms: _671  and  _673
REMARK  261  A    between atoms: _673  and  _674
REMARK  262  A    between atoms: _677  and  _679
REMARK  263  A    between atoms: _679  and  _680
REMARK  264  A    between atoms: _679  and  _682
REMARK  265  A    between atoms: _682  and  _683
REMARK  266  A    between atoms: _686  and  _688
REMARK  267  A    between atoms: _688  and  _689
REMARK  268  A    between atoms: _688  and  _691
REMARK  269  A    between atoms: _694  and  _696
REMARK  270  A    between atoms: _696  and  _697
REMARK  271  A    between atoms: _696  and  _699
REMARK  272  A    between atoms: _699  and  _700
REMARK  273  A    between atoms: _700  and  _701
REMARK  274  A    between atoms: _704  and  _706
REMARK  275  A    between atoms: _706  and  _707
REMARK  276  A    between atoms: _706  and  _709
REMARK  277  A    between atoms: _709  and  _710
REMARK  278  A    between atoms: _715  and  _716
REMARK  279  A    between atoms: _718  and  _720
REMARK  280  A    between atoms: _720  and  _721
REMARK  281  A    between atoms: _720  and  _723
REMARK  282  A    between atoms: _723  and  _724
REMARK  283  A    between atoms: _724  and  _725
REMARK  284  A    between atoms: _725  and  _726
REMARK  285  A    between atoms: _735  and  _737
REMARK  286  A    between atoms: _737  and  _738
REMARK  287  A    between atoms: _737  and  _740
REMARK  288  A    between atoms: _740  and  _741
REMARK  289  A    between atoms: _746  and  _747
REMARK  290  A    between atoms: _749  and  _751
REMARK  291  A    between atoms: _751  and  _752
REMARK  292  A    between atoms: _751  and  _754
REMARK  293  A    between atoms: _754  and  _755
REMARK  294  A    between atoms: _758  and  _760
REMARK  295  A    between atoms: _760  and  _761
REMARK  296  A    between atoms: _760  and  _763
REMARK  297  A    between atoms: _763  and  _764
REMARK  298  A    between atoms: _766  and  _768
REMARK  299  A    between atoms: _768  and  _769
REMARK  300  A    between atoms: _768  and  _771
REMARK  301  A    between atoms: _771  and  _772
REMARK  302  A    between atoms: _778  and  _780
REMARK  303  A    between atoms: _780  and  _781
REMARK  304  A    between atoms: _780  and  _783
REMARK  305  A    between atoms: _783  and  _784
REMARK  306  A    between atoms: _784  and  _785
REMARK                            x       y       z     vdW  Elec       q    Type
REMARK                         _______ _______ _______ _____ _____    ______ ____
ROOT
ATOM      1  CB  ASN A   1      35.756 -11.960   3.209  0.00  0.00    +0.110 C 
ENDROOT
BRANCH   1   2
ATOM      2  CG  ASN A   1      35.381 -10.580   3.682  0.00  0.00    +0.221 C 
ATOM      3  ND2 ASN A   1      34.095 -10.377   3.940  0.00  0.00    -0.329 N 
ATOM      4 HD21 ASN A   1      33.771  -9.444   4.266  0.00  0.00    +0.145 HD
ATOM      5 HD22 ASN A   1      33.411 -11.151   3.816  0.00  0.00    +0.145 HD
ATOM      6  OD1 ASN A   1      36.236  -9.699   3.811  0.00  0.00    -0.275 OA
ENDBRANCH   1   2
BRANCH   1   7
ATOM      7  CA  ASN A   1      35.820 -12.056   1.676  0.00  0.00    +0.142 C 
BRANCH   7   8
ATOM      8  N   ASN A   1      36.279 -13.389   1.287  0.00  0.00    -0.239 NA
ATOM      9  H   ASN A   1      37.300 -13.555   1.177  0.00  0.00    +0.142 HD
ENDBRANCH   7   8
BRANCH   7  10
ATOM     10  C   ASN A   1      36.788 -11.022   1.107  0.00  0.00    +0.225 C 
ATOM     11  O   ASN A   1      37.999 -11.215   1.191  0.00  0.00    -0.287 OA
ENDBRANCH   7  10
ENDBRANCH   1   7
TORSDOF 4
REMARK  Name = ../refined-set-2016/4ca7/4ca7_pocket.pdb
REMARK  306 active torsions:
REMARK  status: ('A' for Active; 'I' for Inactive)
REMARK    1  A    between atoms: _1  and  _3
REMARK    2  A    between atoms: _3  and  _4
REMARK    3  A    between atoms: _3  and  _6
REMARK    4  A    between atoms: _6  and  _7
REMARK    5  A    between atoms: _7  and  _8
REMARK    6  A    between atoms: _8  and  _9
REMARK    7  A    between atoms: _9  and  _10
REMARK    8  A    between atoms: _14  and  _16
REMARK    9  A    between atoms: _16  and  _17
REMARK   10  A    between atoms: _16  and  _19
REMARK   11  A    between atoms: _19  and  _20
REMARK   12  A    between atoms: _20  and  _21
REMARK   13  A    between atoms: _24  and  _26
REMARK   14  A    between atoms: _26  and  _27
REMARK   15  A    between atoms: _26  and  _29
REMARK   16  A    between atoms: _29  and  _30
REMARK   17  A    between atoms: _30  and  _31
REMARK   18  A    between atoms: _34  and  _36
REMARK   19  A    between atoms: _36  and  _37
REMARK   20  A    between atoms: _36  and  _39
REMARK   21  A    between atoms: _39  and  _40
REMARK   22  A    between atoms: _45  and  _47
REMARK   23  A    between atoms: _47  and  _48
REMARK   24  A    between atoms: _47  and  _50
REMARK   25  A    between atoms: _50  and  _51
REMARK   26  A    between atoms: _61  and  _63
REMARK   27  A    between atoms: _63  and  _64
REMARK   28  A    between atoms: _63  and  _66
REMARK   29  A    between atoms: _66  and  _67
REMARK   30  A    between atoms: _67  and  _68
REMARK   31  A    between atoms: _73  and  _75
REMARK   32  A    between atoms: _75  and  _76
REMARK   33  A    between atoms: _75  and  _78
REMARK   34  A    between atoms: _78  and  _79
REMARK   35  A    between atoms: _79  and  _80
REMARK   36  A    between atoms: _85  and  _87
REMARK   37  A    between atoms: _87  and  _88
REMARK   38  A    between atoms: _87  and  _90
REMARK   39  A    between atoms: _90  and  _91
REMARK   40  A    between atoms: _93  and  _95
REMARK   41  A    between atoms: _95  and  _96
REMARK   42  A    between atoms: _95  and  _98
REMARK   43  A    between atoms: _101  and  _103
REMARK   44  A    between atoms: _103  and  _104
REMARK   45  A    between atoms: _103  and  _106
REMARK   46  A    between atoms: _108  and  _110
REMARK   47  A    between atoms: _110  and  _111
REMARK   48  A    between atoms: _110  and  _113
REMARK   49  A    between atoms: _113  and  _114
REMARK   50  A    between atoms: _119  and  _121
REMARK   51  A    between atoms: _121  and  _122
REMARK   52  A    between atoms: _125  and  _127
REMARK   53  A    between atoms: _127  and  _128
REMARK   54  A    between atoms: _127  and  _130
REMARK   55  A    between atoms: _130  and  _131
REMARK   56  A    between atoms: _133  and  _135
REMARK   57  A    between atoms: _135  and  _136
REMARK   58  A    between atoms: _139  and  _141
REMARK   59  A    between atoms: _141  and  _142
REMARK   60  A    between atoms: _141  and  _144
REMARK   61  A    between atoms: _144  and  _145
REMARK   62  A    between atoms: _155  and  _157
REMARK   63  A    between atoms: _157  and  _158
REMARK   64  A    between atoms: _157  and  _160
REMARK   65  A    between atoms: _160  and  _161
REMARK   66  A    between atoms: _164  and  _166
REMARK   67  A    between atoms: _166  and  _167
REMARK   68  A    between atoms: _166  and  _169
REMARK   69  A    between atoms: _169  and  _170
REMARK   70  A    between atoms: _175  and  _176
REMARK   71  A    between atoms: _178  and  _180
REMARK   72  A    between atoms: _180  and  _181
REMARK   73  A    between atoms: _180  and  _183
REMARK   74  A    between atoms: _183  and  _184
REMARK   75  A    between atoms: _184  and  _185
REMARK   76  A    between atoms: _185  and  _186
REMARK   77  A    between atoms: _195  and  _197
REMARK   78  A    between atoms: _197  and  _198
REMARK   79  A    between atoms: _197  and  _200
REMARK   80  A    between atoms: _200  and  _201
REMARK   81  A    between atoms: _204  and  _206
REMARK   82  A    between atoms: _206  and  _207
REMARK   83  A    between atoms: _206  and  _209
REMARK   84  A    between atoms: _209  and  _210
REMARK   85  A    between atoms: _210  and  _211
REMARK   86  A    between atoms: _211  and  _212
REMARK   87  A    between atoms: _212  and  _213
REMARK   88  A    between atoms: _217  and  _219
REMARK   89  A    between atoms: _219  and  _220
REMARK   90  A    between atoms: _219  and  _222
REMARK   91  A    between atoms: _222  and  _223
REMARK   92  A    between atoms: _223  and  _224
REMARK   93  A    between atoms: _229  and  _231
REMARK   94  A    between atoms: _231  and  _232
REMARK   95  A    between atoms: _231  and  _234
REMARK   96  A    between atoms: _234  and  _235
REMARK   97  A    between atoms: _235  and  _236
REMARK   98  A    between atoms: _236  and  _237
REMARK   99  A    between atoms: _246  and  _248
REMARK  100  A    between atoms: _248  and  _249
REMARK  101  A    between atoms: _248  and  _251
REMARK  102  A    between atoms: _251  and  _252
REMARK  103  A    between atoms: _252  and  _253
REMARK  104  A    between atoms: _258  and  _260
REMARK  105  A    between atoms: _260  and  _261
REMARK  106  A    between atoms: _260  and  _263
REMARK  107  A    between atoms: _263  and  _264
REMARK  108  A    between atoms: _267  and  _269
REMARK  109  A    between atoms: _269  and  _270
REMARK  110  A    between atoms: _269  and  _272
REMARK  111  A    between atoms: _272  and  _273
REMARK  112  A    between atoms: _273  and  _274
REMARK  113  A    between atoms: _279  and  _281
REMARK  114  A    between atoms: _281  and  _282
REMARK  115  A    between atoms: _281  and  _284
REMARK  116  A    between atoms: _284  and  _285
REMARK  117  A    between atoms: _288  and  _290
REMARK  118  A    between atoms: _290  and  _291
REMARK  119  A    between atoms: _290  and  _293
REMARK  120  A    between atoms: _293  and  _294
REMARK  121  A    between atoms: _300  and  _302
REMARK  122  A    between atoms: _302  and  _303
REMARK  123  A    between atoms: _302  and  _305
REMARK  124  A    between atoms: _305  and  _306
REMARK  125  A    between atoms: _309  and  _311
REMARK  126  A    between atoms: _311  and  _312
REMARK  127  A    between atoms: _311  and  _314
REMARK  128  A    between atoms: _317  and  _319
REMARK  129  A    between atoms: _319  and  _320
REMARK  130  A    between atoms: _319  and  _322
REMARK  131  A    between atoms: _322  and  _323
REMARK  132  A    between atoms: _328  and  _330
REMARK  133  A    between atoms: _341  and  _344
REMARK  134  A    between atoms: _344  and  _345
REMARK  135  A    between atoms: _345  and  _346
REMARK  136  A    between atoms: _351  and  _354
REMARK  137  A    between atoms: _354  and  _355
REMARK  138  A    between atoms: _365  and  _366
REMARK  139  A    between atoms: _374  and  _376
REMARK  140  A    between atoms: _376  and  _377
REMARK  141  A    between atoms: _376  and  _379
REMARK  142  A    between atoms: _379  and  _380
REMARK  143  A    between atoms: _383  and  _385
REMARK  144  A    between atoms: _385  and  _386
REMARK  145  A    between atoms: _385  and  _388
REMARK  146  A    between atoms: _388  and  _389
REMARK  147  A    between atoms: _394  and  _395
REMARK  148  A    between atoms: _397  and  _399
REMARK  149  A    between atoms: _399  and  _400
REMARK  150  A    between atoms: _399  and  _402
REMARK  151  A    between atoms: _402  and  _403
REMARK  152  A    between atoms: _409  and  _411
REMARK  153  A    between atoms: _411  and  _412
REMARK  154  A    between atoms: _411  and  _414
REMARK  155  A    between atoms: _414  and  _415
REMARK  156  A    between atoms: _420  and  _421
REMARK  157  A    between atoms: _423  and  _425
REMARK  158  A    between atoms: _425  and  _426
REMARK  159  A    between atoms: _425  and  _428
REMARK  160  A    between atoms: _428  and  _429
REMARK  161  A    between atoms: _429  and  _430
REMARK  162  A    between atoms: _430  and  _431
REMARK  163  A    between atoms: _440  and  _442
REMARK  164  A    between atoms: _442  and  _443
REMARK  165  A    between atoms: _442  and  _445
REMARK  166  A    between atoms: _445  and  _446
REMARK  167  A    between atoms: _449  and  _451
REMARK  168  A    between atoms: _451  and  _452
REMARK  169  A    between atoms: _454  and  _456
REMARK  170  A    between atoms: _456  and  _457
REMARK  171  A    between atoms: _456  and  _459
REMARK  172  A    between atoms: _459  and  _460
REMARK  173  A    between atoms: _466  and  _467
REMARK  174  A    between atoms: _472  and  _474
REMARK  175  A    between atoms: _474  and  _475
REMARK  176  A    between atoms: _477  and  _479
REMARK  177  A    between atoms: _479  and  _480
REMARK  178  A    between atoms: _479  and  _482
REMARK  179  A    between atoms: _482  and  _483
REMARK  180  A    between atoms: _489  and  _491
REMARK  181  A    between atoms: _491  and  _492
REMARK  182  A    between atoms: _491  and  _494
REMARK  183  A    between atoms: _494  and  _495
REMARK  184  A    between atoms: _500  and  _502
REMARK  185  A    between atoms: _502  and  _503
REMARK  186  A    between atoms: _502  and  _505
REMARK  187  A    between atoms: _505  and  _506
REMARK  188  A    between atoms: _506  and  _507
REMARK  189  A    between atoms: _507  and  _508
REMARK  190  A    between atoms: _508  and  ZN_790
REMARK  191  A    between atoms: _510  and  _512
REMARK  192  A    between atoms: _512  and  _513
REMARK  193  A    between atoms: _516  and  _518
REMARK  194  A    between atoms: _518  and  _519
REMARK  195  A    between atoms: _521  and  _523
REMARK  196  A    between atoms: _523  and  _524
REMARK  197  A    between atoms: _523  and  _526
REMARK  198  A    between atoms: _526  and  _527
REMARK  199  A    between atoms: _530  and  _532
REMARK  200  A    between atoms: _532  and  _533
REMARK  201  A    between atoms: _532  and  _535
REMARK  202  A    between atoms: _538  and  _540
REMARK  203  A    between atoms: _540  and  _541
REMARK  204  A    between atoms: _540  and  _543
REMARK  205  A    between atoms: _543  and  _544
REMARK  206  A    between atoms: _546  and  _548
REMARK  207  A    between atoms: _548  and  _549
REMARK  208  A    between atoms: _548  and  _551
REMARK  209  A    between atoms: _551  and  _552
REMARK  210  A    between atoms: _555  and  _557
REMARK  211  A    between atoms: _557  and  _558
REMARK  212  A    between atoms: _557  and  _560
REMARK  213  A    between atoms: _560  and  _561
REMARK  214  A    between atoms: _563  and  _565
REMARK  215  A    between atoms: _565  and  _566
REMARK  216  A    between atoms: _565  and  _568
REMARK  217  A    between atoms: _568  and  _569
REMARK  218  A    between atoms: _572  and  _574
REMARK  219  A    between atoms: _574  and  _575
REMARK  220  A    between atoms: _574  and  _577
REMARK  221  A    between atoms: _577  and  _578
REMARK  222  A    between atoms: _578  and  _579
REMARK  223  A    between atoms: _579  and  _580
REMARK  224  A    between atoms: _580  and  _581
REMARK  225  A    between atoms: _585  and  _587
REMARK  226  A    between atoms: _587  and  _588
REMARK  227  A    between atoms: _587  and  _590
REMARK  228  A    between atoms: _590  and  _591
REMARK  229  A    between atoms: _597  and  _599
REMARK  230  A    between atoms: _599  and  _600
REMARK  231  A    between atoms: _599  and  _602
REMARK  232  A    between atoms: _602  and  _603
REMARK  233  A    between atoms: _609  and  _611
REMARK  234  A    between atoms: _611  and  _612
REMARK  235  A    between atoms: _615  and  _617
REMARK  236  A    between atoms: _617  and  _618
REMARK  237  A    between atoms: _617  and  _620
REMARK  238  A    between atoms: _620  and  _621
REMARK  239  A    between atoms: _621  and  _622
REMARK  240  A    between atoms: _624  and  _626
REMARK  241  A    between atoms: _626  and  _627
REMARK  242  A    between atoms: _626  and  _629
REMARK  243  A    between atoms: _629  and  _630
REMARK  244  A    between atoms: _630  and  _631
REMARK  245  A    between atoms: _631  and  _632
REMARK  246  A    between atoms: _632  and  _633
REMARK  247  A    between atoms: _637  and  _639
REMARK  248  A    between atoms: _639  and  _640
REMARK  249  A    between atoms: _639  and  _642
REMARK  250  A    between atoms: _642  and  _643
REMARK  251  A    between atoms: _648  and  _649
REMARK  252  A    between atoms: _651  and  _653
REMARK  253  A    between atoms: _653  and  _654
REMARK  254  A    between atoms: _653  and  _656
REMARK  255  A    between atoms: _656  and  _657
REMARK  256  A    between atoms: _662  and  _664
REMARK  257  A    between atoms: _664  and  _665
REMARK  258  A    between atoms: _664  and  _667
REMARK  259  A    between atoms: _667  and  _668
REMARK  260  A    between atoms: _671  and  _673
REMARK  261  A    between atoms: _673  and  _674
REMARK  262  A    between atoms: _677  and  _679
REMARK  263  A    between atoms: _679  and  _680
REMARK  264  A    between atoms: _679  and  _682
REMARK  265  A    between atoms: _682  and  _683
REMARK  266  A    between atoms: _686  and  _688
REMARK  267  A    between atoms: _688  and  _689
REMARK  268  A    between atoms: _688  and  _691
REMARK  269  A    between atoms: _694  and  _696
REMARK  270  A    between atoms: _696  and  _697
REMARK  271  A    between atoms: _696  and  _699
REMARK  272  A    between atoms: _699  and  _700
REMARK  273  A    between atoms: _700  and  _701
REMARK  274  A    between atoms: _704  and  _706
REMARK  275  A    between atoms: _706  and  _707
REMARK  276  A    between atoms: _706  and  _709
REMARK  277  A    between atoms: _709  and  _710
REMARK  278  A    between atoms: _715  and  _716
REMARK  279  A    between atoms: _718  and  _720
REMARK  280  A    between atoms: _720  and  _721
REMARK  281  A    between atoms: _720  and  _723
REMARK  282  A    between atoms: _723  and  _724
REMARK  283  A    between atoms: _724  and  _725
REMARK  284  A    between atoms: _725  and  _726
REMARK  285  A    between atoms: _735  and  _737
REMARK  286  A    between atoms: _737  and  _738
REMARK  287  A    between atoms: _737  and  _740
REMARK  288  A    between atoms: _740  and  _741
REMARK  289  A    between atoms: _746  and  _747
REMARK  290  A    between atoms: _749  and  _751
REMARK  291  A    between atoms: _751  and  _752
REMARK  292  A    between atoms: _751  and  _754
REMARK  293  A    between atoms: _754  and  _755
REMARK  294  A    between atoms: _758  and  _760
REMARK  295  A    between atoms: _760  and  _761
REMARK  296  A    between atoms: _760  and  _763
REMARK  297  A    between atoms: _763  and  _764
REMARK  298  A    between atoms: _766  and  _768
REMARK  299  A    between atoms: _768  and  _769
REMARK  300  A    between atoms: _768  and  _771
REMARK  301  A    between atoms: _771  and  _772
REMARK  302  A    between atoms: _778  and  _780
REMARK  303  A    between atoms: _780  and  _781
REMARK  304  A    between atoms: _780  and  _783
REMARK  305  A    between atoms: _783  and  _784
REMARK  306  A    between atoms: _784  and  _785
REMARK                            x       y       z     vdW  Elec       q    Type
REMARK                         _______ _______ _______ _____ _____    ______ ____
ROOT
ATOM      1  CG  TRP A   1      37.561  -5.702   2.837  0.00  0.00    -0.002 A 
ATOM      2  CD2 TRP A   1      36.190  -5.812   2.428  0.00  0.00    +0.013 A 
ATOM      3  CE3 TRP A   1      35.151  -6.701   2.743  0.00  0.00    +0.001 A 
ATOM      4  CZ3 TRP A   1      33.901  -6.510   2.158  0.00  0.00    +0.000 A 
ATOM      5  CH2 TRP A   1      33.681  -5.449   1.245  0.00  0.00    +0.001 A 
ATOM      6  CZ2 TRP A   1      34.682  -4.575   0.905  0.00  0.00    +0.017 A 
ATOM      7  CE2 TRP A   1      35.938  -4.762   1.508  0.00  0.00    +0.056 A 
ATOM      8  NE1 TRP A   1      37.102  -4.053   1.364  0.00  0.00    -0.352 N 
ATOM      9  HE1 TRP A   1      37.232  -3.220   0.755  0.00  0.00    +0.166 HD
ATOM     10  CD1 TRP A   1      38.077  -4.628   2.162  0.00  0.00    +0.068 A 
ENDROOT
BRANCH   1  11
ATOM     11  CB  TRP A   1      38.315  -6.651   3.770  0.00  0.00    +0.053 C 
BRANCH  11  12
ATOM     12  CA  TRP A   1      38.990  -7.769   2.936  0.00  0.00    +0.137 C 
BRANCH  12  13
ATOM     13  N   TRP A   1      38.019  -8.335   1.983  0.00  0.00    -0.239 NA
ATOM     14  H   TRP A   1      37.134  -8.735   2.355  0.00  0.00    +0.142 HD
ENDBRANCH  12  13
BRANCH  12  15
ATOM     15  C   TRP A   1      39.631  -8.855   3.814  0.00  0.00    +0.224 C 
ATOM     16  O   TRP A   1      40.430  -8.559   4.706  0.00  0.00    -0.287 OA
ENDBRANCH  12  15
ENDBRANCH  11  12
ENDBRANCH   1  11
TORSDOF 4
REMARK  Name = ../refined-set-2016/4ca7/4ca7_pocket.pdb
REMARK  306 active torsions:
REMARK  status: ('A' for Active; 'I' for Inactive)
REMARK    1  A    between atoms: _1  and  _3
REMARK    2  A    between atoms: _3  and  _4
REMARK    3  A    between atoms: _3  and  _6
REMARK    4  A    between atoms: _6  and  _7
REMARK    5  A    between atoms: _7  and  _8
REMARK    6  A    between atoms: _8  and  _9
REMARK    7  A    between atoms: _9  and  _10
REMARK    8  A    between atoms: _14  and  _16
REMARK    9  A    between atoms: _16  and  _17
REMARK   10  A    between atoms: _16  and  _19
REMARK   11  A    between atoms: _19  and  _20
REMARK   12  A    between atoms: _20  and  _21
REMARK   13  A    between atoms: _24  and  _26
REMARK   14  A    between atoms: _26  and  _27
REMARK   15  A    between atoms: _26  and  _29
REMARK   16  A    between atoms: _29  and  _30
REMARK   17  A    between atoms: _30  and  _31
REMARK   18  A    between atoms: _34  and  _36
REMARK   19  A    between atoms: _36  and  _37
REMARK   20  A    between atoms: _36  and  _39
REMARK   21  A    between atoms: _39  and  _40
REMARK   22  A    between atoms: _45  and  _47
REMARK   23  A    between atoms: _47  and  _48
REMARK   24  A    between atoms: _47  and  _50
REMARK   25  A    between atoms: _50  and  _51
REMARK   26  A    between atoms: _61  and  _63
REMARK   27  A    between atoms: _63  and  _64
REMARK   28  A    between atoms: _63  and  _66
REMARK   29  A    between atoms: _66  and  _67
REMARK   30  A    between atoms: _67  and  _68
REMARK   31  A    between atoms: _73  and  _75
REMARK   32  A    between atoms: _75  and  _76
REMARK   33  A    between atoms: _75  and  _78
REMARK   34  A    between atoms: _78  and  _79
REMARK   35  A    between atoms: _79  and  _80
REMARK   36  A    between atoms: _85  and  _87
REMARK   37  A    between atoms: _87  and  _88
REMARK   38  A    between atoms: _87  and  _90
REMARK   39  A    between atoms: _90  and  _91
REMARK   40  A    between atoms: _93  and  _95
REMARK   41  A    between atoms: _95  and  _96
REMARK   42  A    between atoms: _95  and  _98
REMARK   43  A    between atoms: _101  and  _103
REMARK   44  A    between atoms: _103  and  _104
REMARK   45  A    between atoms: _103  and  _106
REMARK   46  A    between atoms: _108  and  _110
REMARK   47  A    between atoms: _110  and  _111
REMARK   48  A    between atoms: _110  and  _113
REMARK   49  A    between atoms: _113  and  _114
REMARK   50  A    between atoms: _119  and  _121
REMARK   51  A    between atoms: _121  and  _122
REMARK   52  A    between atoms: _125  and  _127
REMARK   53  A    between atoms: _127  and  _128
REMARK   54  A    between atoms: _127  and  _130
REMARK   55  A    between atoms: _130  and  _131
REMARK   56  A    between atoms: _133  and  _135
REMARK   57  A    between atoms: _135  and  _136
REMARK   58  A    between atoms: _139  and  _141
REMARK   59  A    between atoms: _141  and  _142
REMARK   60  A    between atoms: _141  and  _144
REMARK   61  A    between atoms: _144  and  _145
REMARK   62  A    between atoms: _155  and  _157
REMARK   63  A    between atoms: _157  and  _158
REMARK   64  A    between atoms: _157  and  _160
REMARK   65  A    between atoms: _160  and  _161
REMARK   66  A    between atoms: _164  and  _166
REMARK   67  A    between atoms: _166  and  _167
REMARK   68  A    between atoms: _166  and  _169
REMARK   69  A    between atoms: _169  and  _170
REMARK   70  A    between atoms: _175  and  _176
REMARK   71  A    between atoms: _178  and  _180
REMARK   72  A    between atoms: _180  and  _181
REMARK   73  A    between atoms: _180  and  _183
REMARK   74  A    between atoms: _183  and  _184
REMARK   75  A    between atoms: _184  and  _185
REMARK   76  A    between atoms: _185  and  _186
REMARK   77  A    between atoms: _195  and  _197
REMARK   78  A    between atoms: _197  and  _198
REMARK   79  A    between atoms: _197  and  _200
REMARK   80  A    between atoms: _200  and  _201
REMARK   81  A    between atoms: _204  and  _206
REMARK   82  A    between atoms: _206  and  _207
REMARK   83  A    between atoms: _206  and  _209
REMARK   84  A    between atoms: _209  and  _210
REMARK   85  A    between atoms: _210  and  _211
REMARK   86  A    between atoms: _211  and  _212
REMARK   87  A    between atoms: _212  and  _213
REMARK   88  A    between atoms: _217  and  _219
REMARK   89  A    between atoms: _219  and  _220
REMARK   90  A    between atoms: _219  and  _222
REMARK   91  A    between atoms: _222  and  _223
REMARK   92  A    between atoms: _223  and  _224
REMARK   93  A    between atoms: _229  and  _231
REMARK   94  A    between atoms: _231  and  _232
REMARK   95  A    between atoms: _231  and  _234
REMARK   96  A    between atoms: _234  and  _235
REMARK   97  A    between atoms: _235  and  _236
REMARK   98  A    between atoms: _236  and  _237
REMARK   99  A    between atoms: _246  and  _248
REMARK  100  A    between atoms: _248  and  _249
REMARK  101  A    between atoms: _248  and  _251
REMARK  102  A    between atoms: _251  and  _252
REMARK  103  A    between atoms: _252  and  _253
REMARK  104  A    between atoms: _258  and  _260
REMARK  105  A    between atoms: _260  and  _261
REMARK  106  A    between atoms: _260  and  _263
REMARK  107  A    between atoms: _263  and  _264
REMARK  108  A    between atoms: _267  and  _269
REMARK  109  A    between atoms: _269  and  _270
REMARK  110  A    between atoms: _269  and  _272
REMARK  111  A    between atoms: _272  and  _273
REMARK  112  A    between atoms: _273  and  _274
REMARK  113  A    between atoms: _279  and  _281
REMARK  114  A    between atoms: _281  and  _282
REMARK  115  A    between atoms: _281  and  _284
REMARK  116  A    between atoms: _284  and  _285
REMARK  117  A    between atoms: _288  and  _290
REMARK  118  A    between atoms: _290  and  _291
REMARK  119  A    between atoms: _290  and  _293
REMARK  120  A    between atoms: _293  and  _294
REMARK  121  A    between atoms: _300  and  _302
REMARK  122  A    between atoms: _302  and  _303
REMARK  123  A    between atoms: _302  and  _305
REMARK  124  A    between atoms: _305  and  _306
REMARK  125  A    between atoms: _309  and  _311
REMARK  126  A    between atoms: _311  and  _312
REMARK  127  A    between atoms: _311  and  _314
REMARK  128  A    between atoms: _317  and  _319
REMARK  129  A    between atoms: _319  and  _320
REMARK  130  A    between atoms: _319  and  _322
REMARK  131  A    between atoms: _322  and  _323
REMARK  132  A    between atoms: _328  and  _330
REMARK  133  A    between atoms: _341  and  _344
REMARK  134  A    between atoms: _344  and  _345
REMARK  135  A    between atoms: _345  and  _346
REMARK  136  A    between atoms: _351  and  _354
REMARK  137  A    between atoms: _354  and  _355
REMARK  138  A    between atoms: _365  and  _366
REMARK  139  A    between atoms: _374  and  _376
REMARK  140  A    between atoms: _376  and  _377
REMARK  141  A    between atoms: _376  and  _379
REMARK  142  A    between atoms: _379  and  _380
REMARK  143  A    between atoms: _383  and  _385
REMARK  144  A    between atoms: _385  and  _386
REMARK  145  A    between atoms: _385  and  _388
REMARK  146  A    between atoms: _388  and  _389
REMARK  147  A    between atoms: _394  and  _395
REMARK  148  A    between atoms: _397  and  _399
REMARK  149  A    between atoms: _399  and  _400
REMARK  150  A    between atoms: _399  and  _402
REMARK  151  A    between atoms: _402  and  _403
REMARK  152  A    between atoms: _409  and  _411
REMARK  153  A    between atoms: _411  and  _412
REMARK  154  A    between atoms: _411  and  _414
REMARK  155  A    between atoms: _414  and  _415
REMARK  156  A    between atoms: _420  and  _421
REMARK  157  A    between atoms: _423  and  _425
REMARK  158  A    between atoms: _425  and  _426
REMARK  159  A    between atoms: _425  and  _428
REMARK  160  A    between atoms: _428  and  _429
REMARK  161  A    between atoms: _429  and  _430
REMARK  162  A    between atoms: _430  and  _431
REMARK  163  A    between atoms: _440  and  _442
REMARK  164  A    between atoms: _442  and  _443
REMARK  165  A    between atoms: _442  and  _445
REMARK  166  A    between atoms: _445  and  _446
REMARK  167  A    between atoms: _449  and  _451
REMARK  168  A    between atoms: _451  and  _452
REMARK  169  A    between atoms: _454  and  _456
REMARK  170  A    between atoms: _456  and  _457
REMARK  171  A    between atoms: _456  and  _459
REMARK  172  A    between atoms: _459  and  _460
REMARK  173  A    between atoms: _466  and  _467
REMARK  174  A    between atoms: _472  and  _474
REMARK  175  A    between atoms: _474  and  _475
REMARK  176  A    between atoms: _477  and  _479
REMARK  177  A    between atoms: _479  and  _480
REMARK  178  A    between atoms: _479  and  _482
REMARK  179  A    between atoms: _482  and  _483
REMARK  180  A    between atoms: _489  and  _491
REMARK  181  A    between atoms: _491  and  _492
REMARK  182  A    between atoms: _491  and  _494
REMARK  183  A    between atoms: _494  and  _495
REMARK  184  A    between atoms: _500  and  _502
REMARK  185  A    between atoms: _502  and  _503
REMARK  186  A    between atoms: _502  and  _505
REMARK  187  A    between atoms: _505  and  _506
REMARK  188  A    between atoms: _506  and  _507
REMARK  189  A    between atoms: _507  and  _508
REMARK  190  A    between atoms: _508  and  ZN_790
REMARK  191  A    between atoms: _510  and  _512
REMARK  192  A    between atoms: _512  and  _513
REMARK  193  A    between atoms: _516  and  _518
REMARK  194  A    between atoms: _518  and  _519
REMARK  195  A    between atoms: _521  and  _523
REMARK  196  A    between atoms: _523  and  _524
REMARK  197  A    between atoms: _523  and  _526
REMARK  198  A    between atoms: _526  and  _527
REMARK  199  A    between atoms: _530  and  _532
REMARK  200  A    between atoms: _532  and  _533
REMARK  201  A    between atoms: _532  and  _535
REMARK  202  A    between atoms: _538  and  _540
REMARK  203  A    between atoms: _540  and  _541
REMARK  204  A    between atoms: _540  and  _543
REMARK  205  A    between atoms: _543  and  _544
REMARK  206  A    between atoms: _546  and  _548
REMARK  207  A    between atoms: _548  and  _549
REMARK  208  A    between atoms: _548  and  _551
REMARK  209  A    between atoms: _551  and  _552
REMARK  210  A    between atoms: _555  and  _557
REMARK  211  A    between atoms: _557  and  _558
REMARK  212  A    between atoms: _557  and  _560
REMARK  213  A    between atoms: _560  and  _561
REMARK  214  A    between atoms: _563  and  _565
REMARK  215  A    between atoms: _565  and  _566
REMARK  216  A    between atoms: _565  and  _568
REMARK  217  A    between atoms: _568  and  _569
REMARK  218  A    between atoms: _572  and  _574
REMARK  219  A    between atoms: _574  and  _575
REMARK  220  A    between atoms: _574  and  _577
REMARK  221  A    between atoms: _577  and  _578
REMARK  222  A    between atoms: _578  and  _579
REMARK  223  A    between atoms: _579  and  _580
REMARK  224  A    between atoms: _580  and  _581
REMARK  225  A    between atoms: _585  and  _587
REMARK  226  A    between atoms: _587  and  _588
REMARK  227  A    between atoms: _587  and  _590
REMARK  228  A    between atoms: _590  and  _591
REMARK  229  A    between atoms: _597  and  _599
REMARK  230  A    between atoms: _599  and  _600
REMARK  231  A    between atoms: _599  and  _602
REMARK  232  A    between atoms: _602  and  _603
REMARK  233  A    between atoms: _609  and  _611
REMARK  234  A    between atoms: _611  and  _612
REMARK  235  A    between atoms: _615  and  _617
REMARK  236  A    between atoms: _617  and  _618
REMARK  237  A    between atoms: _617  and  _620
REMARK  238  A    between atoms: _620  and  _621
REMARK  239  A    between atoms: _621  and  _622
REMARK  240  A    between atoms: _624  and  _626
REMARK  241  A    between atoms: _626  and  _627
REMARK  242  A    between atoms: _626  and  _629
REMARK  243  A    between atoms: _629  and  _630
REMARK  244  A    between atoms: _630  and  _631
REMARK  245  A    between atoms: _631  and  _632
REMARK  246  A    between atoms: _632  and  _633
REMARK  247  A    between atoms: _637  and  _639
REMARK  248  A    between atoms: _639  and  _640
REMARK  249  A    between atoms: _639  and  _642
REMARK  250  A    between atoms: _642  and  _643
REMARK  251  A    between atoms: _648  and  _649
REMARK  252  A    between atoms: _651  and  _653
REMARK  253  A    between atoms: _653  and  _654
REMARK  254  A    between atoms: _653  and  _656
REMARK  255  A    between atoms: _656  and  _657
REMARK  256  A    between atoms: _662  and  _664
REMARK  257  A    between atoms: _664  and  _665
REMARK  258  A    between atoms: _664  and  _667
REMARK  259  A    between atoms: _667  and  _668
REMARK  260  A    between atoms: _671  and  _673
REMARK  261  A    between atoms: _673  and  _674
REMARK  262  A    between atoms: _677  and  _679
REMARK  263  A    between atoms: _679  and  _680
REMARK  264  A    between atoms: _679  and  _682
REMARK  265  A    between atoms: _682  and  _683
REMARK  266  A    between atoms: _686  and  _688
REMARK  267  A    between atoms: _688  and  _689
REMARK  268  A    between atoms: _688  and  _691
REMARK  269  A    between atoms: _694  and  _696
REMARK  270  A    between atoms: _696  and  _697
REMARK  271  A    between atoms: _696  and  _699
REMARK  272  A    between atoms: _699  and  _700
REMARK  273  A    between atoms: _700  and  _701
REMARK  274  A    between atoms: _704  and  _706
REMARK  275  A    between atoms: _706  and  _707
REMARK  276  A    between atoms: _706  and  _709
REMARK  277  A    between atoms: _709  and  _710
REMARK  278  A    between atoms: _715  and  _716
REMARK  279  A    between atoms: _718  and  _720
REMARK  280  A    between atoms: _720  and  _721
REMARK  281  A    between atoms: _720  and  _723
REMARK  282  A    between atoms: _723  and  _724
REMARK  283  A    between atoms: _724  and  _725
REMARK  284  A    between atoms: _725  and  _726
REMARK  285  A    between atoms: _735  and  _737
REMARK  286  A    between atoms: _737  and  _738
REMARK  287  A    between atoms: _737  and  _740
REMARK  288  A    between atoms: _740  and  _741
REMARK  289  A    between atoms: _746  and  _747
REMARK  290  A    between atoms: _749  and  _751
REMARK  291  A    between atoms: _751  and  _752
REMARK  292  A    between atoms: _751  and  _754
REMARK  293  A    between atoms: _754  and  _755
REMARK  294  A    between atoms: _758  and  _760
REMARK  295  A    between atoms: _760  and  _761
REMARK  296  A    between atoms: _760  and  _763
REMARK  297  A    between atoms: _763  and  _764
REMARK  298  A    between atoms: _766  and  _768
REMARK  299  A    between atoms: _768  and  _769
REMARK  300  A    between atoms: _768  and  _771
REMARK  301  A    between atoms: _771  and  _772
REMARK  302  A    between atoms: _778  and  _780
REMARK  303  A    between atoms: _780  and  _781
REMARK  304  A    between atoms: _780  and  _783
REMARK  305  A    between atoms: _783  and  _784
REMARK  306  A    between atoms: _784  and  _785
REMARK                            x       y       z     vdW  Elec       q    Type
REMARK                         _______ _______ _______ _____ _____    ______ ____
ROOT
ATOM      1  C   GLN A   1      37.295 -11.222   8.272  0.00  0.00    +0.238 C 
ATOM      2  O   GLN A   1      37.403 -11.307   9.507  0.00  0.00    -0.274 OA
ATOM      3  N   GLN A   2      36.587 -12.078   7.537  0.00  0.00    -0.298 N 
ATOM      4  H   GLN A   2      36.477 -11.873   6.523  0.00  0.00    +0.150 HD
ENDROOT
BRANCH   1   5
ATOM      5  CA  GLN A   1      37.958 -10.067   7.521  0.00  0.00    +0.145 C 
BRANCH   5   6
ATOM      6  N   GLN A   1      38.266 -10.362   6.103  0.00  0.00    -0.238 NA
ATOM      7  H   GLN A   1      37.648 -10.003   5.348  0.00  0.00    +0.142 HD
ENDBRANCH   5   6
BRANCH   5   8
ATOM      8  CB  GLN A   1      37.117  -8.790   7.663  0.00  0.00    +0.036 C 
BRANCH   8   9
ATOM      9  CG  GLN A   1      35.681  -8.914   7.175  0.00  0.00    +0.087 C 
BRANCH   9  10
ATOM     10  CD  GLN A   1      35.020  -7.564   6.992  0.00  0.00    +0.219 C 
ATOM     11  NE2 GLN A   1      33.764  -7.486   7.374  0.00  0.00    -0.329 N 
ATOM     12 HE21 GLN A   1      33.287  -8.323   7.766  0.00  0.00    +0.145 HD
ATOM     13 HE22 GLN A   1      33.248  -6.588   7.284  0.00  0.00    +0.145 HD
ATOM     14  OE1 GLN A   1      35.635  -6.600   6.519  0.00  0.00    -0.275 OA
ENDBRANCH   9  10
ENDBRANCH   8   9
ENDBRANCH   5   8
ENDBRANCH   1   5
BRANCH   3  15
ATOM     15  CA  GLN A   2      35.949 -13.296   8.065  0.00  0.00    +0.137 C 
BRANCH  15  16
ATOM     16  C   GLN A   2      36.082 -14.369   6.993  0.00  0.00    +0.227 C 
ATOM     17  O   GLN A   2      35.968 -14.053   5.797  0.00  0.00    -0.286 OA
ENDBRANCH  15  16
BRANCH  15  18
ATOM     18  CB  GLN A   2      34.461 -13.060   8.364  0.00  0.00    +0.037 C 
BRANCH  18  19
ATOM     19  CG  GLN A   2      34.219 -12.035   9.460  0.00  0.00    +0.087 C 
BRANCH  19  20
ATOM     20  CD  GLN A   2      32.788 -12.014   9.951  0.00  0.00    +0.219 C 
ATOM     21  NE2 GLN A   2      32.619 -12.145  11.263  0.00  0.00    -0.329 N 
ATOM     22 HE21 GLN A   2      33.444 -12.269  11.884  0.00  0.00    +0.145 HD
ATOM     23 HE22 GLN A   2      31.662 -12.123  11.669  0.00  0.00    +0.145 HD
ATOM     24  OE1 GLN A   2      31.843 -11.864   9.169  0.00  0.00    -0.275 OA
ENDBRANCH  19  20
ENDBRANCH  18  19
ENDBRANCH  15  18
ENDBRANCH   3  15
TORSDOF 10
REMARK  Name = ../refined-set-2016/4ca7/4ca7_pocket.pdb
REMARK  306 active torsions:
REMARK  status: ('A' for Active; 'I' for Inactive)
REMARK    1  A    between atoms: _1  and  _3
REMARK    2  A    between atoms: _3  and  _4
REMARK    3  A    between atoms: _3  and  _6
REMARK    4  A    between atoms: _6  and  _7
REMARK    5  A    between atoms: _7  and  _8
REMARK    6  A    between atoms: _8  and  _9
REMARK    7  A    between atoms: _9  and  _10
REMARK    8  A    between atoms: _14  and  _16
REMARK    9  A    between atoms: _16  and  _17
REMARK   10  A    between atoms: _16  and  _19
REMARK   11  A    between atoms: _19  and  _20
REMARK   12  A    between atoms: _20  and  _21
REMARK   13  A    between atoms: _24  and  _26
REMARK   14  A    between atoms: _26  and  _27
REMARK   15  A    between atoms: _26  and  _29
REMARK   16  A    between atoms: _29  and  _30
REMARK   17  A    between atoms: _30  and  _31
REMARK   18  A    between atoms: _34  and  _36
REMARK   19  A    between atoms: _36  and  _37
REMARK   20  A    between atoms: _36  and  _39
REMARK   21  A    between atoms: _39  and  _40
REMARK   22  A    between atoms: _45  and  _47
REMARK   23  A    between atoms: _47  and  _48
REMARK   24  A    between atoms: _47  and  _50
REMARK   25  A    between atoms: _50  and  _51
REMARK   26  A    between atoms: _61  and  _63
REMARK   27  A    between atoms: _63  and  _64
REMARK   28  A    between atoms: _63  and  _66
REMARK   29  A    between atoms: _66  and  _67
REMARK   30  A    between atoms: _67  and  _68
REMARK   31  A    between atoms: _73  and  _75
REMARK   32  A    between atoms: _75  and  _76
REMARK   33  A    between atoms: _75  and  _78
REMARK   34  A    between atoms: _78  and  _79
REMARK   35  A    between atoms: _79  and  _80
REMARK   36  A    between atoms: _85  and  _87
REMARK   37  A    between atoms: _87  and  _88
REMARK   38  A    between atoms: _87  and  _90
REMARK   39  A    between atoms: _90  and  _91
REMARK   40  A    between atoms: _93  and  _95
REMARK   41  A    between atoms: _95  and  _96
REMARK   42  A    between atoms: _95  and  _98
REMARK   43  A    between atoms: _101  and  _103
REMARK   44  A    between atoms: _103  and  _104
REMARK   45  A    between atoms: _103  and  _106
REMARK   46  A    between atoms: _108  and  _110
REMARK   47  A    between atoms: _110  and  _111
REMARK   48  A    between atoms: _110  and  _113
REMARK   49  A    between atoms: _113  and  _114
REMARK   50  A    between atoms: _119  and  _121
REMARK   51  A    between atoms: _121  and  _122
REMARK   52  A    between atoms: _125  and  _127
REMARK   53  A    between atoms: _127  and  _128
REMARK   54  A    between atoms: _127  and  _130
REMARK   55  A    between atoms: _130  and  _131
REMARK   56  A    between atoms: _133  and  _135
REMARK   57  A    between atoms: _135  and  _136
REMARK   58  A    between atoms: _139  and  _141
REMARK   59  A    between atoms: _141  and  _142
REMARK   60  A    between atoms: _141  and  _144
REMARK   61  A    between atoms: _144  and  _145
REMARK   62  A    between atoms: _155  and  _157
REMARK   63  A    between atoms: _157  and  _158
REMARK   64  A    between atoms: _157  and  _160
REMARK   65  A    between atoms: _160  and  _161
REMARK   66  A    between atoms: _164  and  _166
REMARK   67  A    between atoms: _166  and  _167
REMARK   68  A    between atoms: _166  and  _169
REMARK   69  A    between atoms: _169  and  _170
REMARK   70  A    between atoms: _175  and  _176
REMARK   71  A    between atoms: _178  and  _180
REMARK   72  A    between atoms: _180  and  _181
REMARK   73  A    between atoms: _180  and  _183
REMARK   74  A    between atoms: _183  and  _184
REMARK   75  A    between atoms: _184  and  _185
REMARK   76  A    between atoms: _185  and  _186
REMARK   77  A    between atoms: _195  and  _197
REMARK   78  A    between atoms: _197  and  _198
REMARK   79  A    between atoms: _197  and  _200
REMARK   80  A    between atoms: _200  and  _201
REMARK   81  A    between atoms: _204  and  _206
REMARK   82  A    between atoms: _206  and  _207
REMARK   83  A    between atoms: _206  and  _209
REMARK   84  A    between atoms: _209  and  _210
REMARK   85  A    between atoms: _210  and  _211
REMARK   86  A    between atoms: _211  and  _212
REMARK   87  A    between atoms: _212  and  _213
REMARK   88  A    between atoms: _217  and  _219
REMARK   89  A    between atoms: _219  and  _220
REMARK   90  A    between atoms: _219  and  _222
REMARK   91  A    between atoms: _222  and  _223
REMARK   92  A    between atoms: _223  and  _224
REMARK   93  A    between atoms: _229  and  _231
REMARK   94  A    between atoms: _231  and  _232
REMARK   95  A    between atoms: _231  and  _234
REMARK   96  A    between atoms: _234  and  _235
REMARK   97  A    between atoms: _235  and  _236
REMARK   98  A    between atoms: _236  and  _237
REMARK   99  A    between atoms: _246  and  _248
REMARK  100  A    between atoms: _248  and  _249
REMARK  101  A    between atoms: _248  and  _251
REMARK  102  A    between atoms: _251  and  _252
REMARK  103  A    between atoms: _252  and  _253
REMARK  104  A    between atoms: _258  and  _260
REMARK  105  A    between atoms: _260  and  _261
REMARK  106  A    between atoms: _260  and  _263
REMARK  107  A    between atoms: _263  and  _264
REMARK  108  A    between atoms: _267  and  _269
REMARK  109  A    between atoms: _269  and  _270
REMARK  110  A    between atoms: _269  and  _272
REMARK  111  A    between atoms: _272  and  _273
REMARK  112  A    between atoms: _273  and  _274
REMARK  113  A    between atoms: _279  and  _281
REMARK  114  A    between atoms: _281  and  _282
REMARK  115  A    between atoms: _281  and  _284
REMARK  116  A    between atoms: _284  and  _285
REMARK  117  A    between atoms: _288  and  _290
REMARK  118  A    between atoms: _290  and  _291
REMARK  119  A    between atoms: _290  and  _293
REMARK  120  A    between atoms: _293  and  _294
REMARK  121  A    between atoms: _300  and  _302
REMARK  122  A    between atoms: _302  and  _303
REMARK  123  A    between atoms: _302  and  _305
REMARK  124  A    between atoms: _305  and  _306
REMARK  125  A    between atoms: _309  and  _311
REMARK  126  A    between atoms: _311  and  _312
REMARK  127  A    between atoms: _311  and  _314
REMARK  128  A    between atoms: _317  and  _319
REMARK  129  A    between atoms: _319  and  _320
REMARK  130  A    between atoms: _319  and  _322
REMARK  131  A    between atoms: _322  and  _323
REMARK  132  A    between atoms: _328  and  _330
REMARK  133  A    between atoms: _341  and  _344
REMARK  134  A    between atoms: _344  and  _345
REMARK  135  A    between atoms: _345  and  _346
REMARK  136  A    between atoms: _351  and  _354
REMARK  137  A    between atoms: _354  and  _355
REMARK  138  A    between atoms: _365  and  _366
REMARK  139  A    between atoms: _374  and  _376
REMARK  140  A    between atoms: _376  and  _377
REMARK  141  A    between atoms: _376  and  _379
REMARK  142  A    between atoms: _379  and  _380
REMARK  143  A    between atoms: _383  and  _385
REMARK  144  A    between atoms: _385  and  _386
REMARK  145  A    between atoms: _385  and  _388
REMARK  146  A    between atoms: _388  and  _389
REMARK  147  A    between atoms: _394  and  _395
REMARK  148  A    between atoms: _397  and  _399
REMARK  149  A    between atoms: _399  and  _400
REMARK  150  A    between atoms: _399  and  _402
REMARK  151  A    between atoms: _402  and  _403
REMARK  152  A    between atoms: _409  and  _411
REMARK  153  A    between atoms: _411  and  _412
REMARK  154  A    between atoms: _411  and  _414
REMARK  155  A    between atoms: _414  and  _415
REMARK  156  A    between atoms: _420  and  _421
REMARK  157  A    between atoms: _423  and  _425
REMARK  158  A    between atoms: _425  and  _426
REMARK  159  A    between atoms: _425  and  _428
REMARK  160  A    between atoms: _428  and  _429
REMARK  161  A    between atoms: _429  and  _430
REMARK  162  A    between atoms: _430  and  _431
REMARK  163  A    between atoms: _440  and  _442
REMARK  164  A    between atoms: _442  and  _443
REMARK  165  A    between atoms: _442  and  _445
REMARK  166  A    between atoms: _445  and  _446
REMARK  167  A    between atoms: _449  and  _451
REMARK  168  A    between atoms: _451  and  _452
REMARK  169  A    between atoms: _454  and  _456
REMARK  170  A    between atoms: _456  and  _457
REMARK  171  A    between atoms: _456  and  _459
REMARK  172  A    between atoms: _459  and  _460
REMARK  173  A    between atoms: _466  and  _467
REMARK  174  A    between atoms: _472  and  _474
REMARK  175  A    between atoms: _474  and  _475
REMARK  176  A    between atoms: _477  and  _479
REMARK  177  A    between atoms: _479  and  _480
REMARK  178  A    between atoms: _479  and  _482
REMARK  179  A    between atoms: _482  and  _483
REMARK  180  A    between atoms: _489  and  _491
REMARK  181  A    between atoms: _491  and  _492
REMARK  182  A    between atoms: _491  and  _494
REMARK  183  A    between atoms: _494  and  _495
REMARK  184  A    between atoms: _500  and  _502
REMARK  185  A    between atoms: _502  and  _503
REMARK  186  A    between atoms: _502  and  _505
REMARK  187  A    between atoms: _505  and  _506
REMARK  188  A    between atoms: _506  and  _507
REMARK  189  A    between atoms: _507  and  _508
REMARK  190  A    between atoms: _508  and  ZN_790
REMARK  191  A    between atoms: _510  and  _512
REMARK  192  A    between atoms: _512  and  _513
REMARK  193  A    between atoms: _516  and  _518
REMARK  194  A    between atoms: _518  and  _519
REMARK  195  A    between atoms: _521  and  _523
REMARK  196  A    between atoms: _523  and  _524
REMARK  197  A    between atoms: _523  and  _526
REMARK  198  A    between atoms: _526  and  _527
REMARK  199  A    between atoms: _530  and  _532
REMARK  200  A    between atoms: _532  and  _533
REMARK  201  A    between atoms: _532  and  _535
REMARK  202  A    between atoms: _538  and  _540
REMARK  203  A    between atoms: _540  and  _541
REMARK  204  A    between atoms: _540  and  _543
REMARK  205  A    between atoms: _543  and  _544
REMARK  206  A    between atoms: _546  and  _548
REMARK  207  A    between atoms: _548  and  _549
REMARK  208  A    between atoms: _548  and  _551
REMARK  209  A    between atoms: _551  and  _552
REMARK  210  A    between atoms: _555  and  _557
REMARK  211  A    between atoms: _557  and  _558
REMARK  212  A    between atoms: _557  and  _560
REMARK  213  A    between atoms: _560  and  _561
REMARK  214  A    between atoms: _563  and  _565
REMARK  215  A    between atoms: _565  and  _566
REMARK  216  A    between atoms: _565  and  _568
REMARK  217  A    between atoms: _568  and  _569
REMARK  218  A    between atoms: _572  and  _574
REMARK  219  A    between atoms: _574  and  _575
REMARK  220  A    between atoms: _574  and  _577
REMARK  221  A    between atoms: _577  and  _578
REMARK  222  A    between atoms: _578  and  _579
REMARK  223  A    between atoms: _579  and  _580
REMARK  224  A    between atoms: _580  and  _581
REMARK  225  A    between atoms: _585  and  _587
REMARK  226  A    between atoms: _587  and  _588
REMARK  227  A    between atoms: _587  and  _590
REMARK  228  A    between atoms: _590  and  _591
REMARK  229  A    between atoms: _597  and  _599
REMARK  230  A    between atoms: _599  and  _600
REMARK  231  A    between atoms: _599  and  _602
REMARK  232  A    between atoms: _602  and  _603
REMARK  233  A    between atoms: _609  and  _611
REMARK  234  A    between atoms: _611  and  _612
REMARK  235  A    between atoms: _615  and  _617
REMARK  236  A    between atoms: _617  and  _618
REMARK  237  A    between atoms: _617  and  _620
REMARK  238  A    between atoms: _620  and  _621
REMARK  239  A    between atoms: _621  and  _622
REMARK  240  A    between atoms: _624  and  _626
REMARK  241  A    between atoms: _626  and  _627
REMARK  242  A    between atoms: _626  and  _629
REMARK  243  A    between atoms: _629  and  _630
REMARK  244  A    between atoms: _630  and  _631
REMARK  245  A    between atoms: _631  and  _632
REMARK  246  A    between atoms: _632  and  _633
REMARK  247  A    between atoms: _637  and  _639
REMARK  248  A    between atoms: _639  and  _640
REMARK  249  A    between atoms: _639  and  _642
REMARK  250  A    between atoms: _642  and  _643
REMARK  251  A    between atoms: _648  and  _649
REMARK  252  A    between atoms: _651  and  _653
REMARK  253  A    between atoms: _653  and  _654
REMARK  254  A    between atoms: _653  and  _656
REMARK  255  A    between atoms: _656  and  _657
REMARK  256  A    between atoms: _662  and  _664
REMARK  257  A    between atoms: _664  and  _665
REMARK  258  A    between atoms: _664  and  _667
REMARK  259  A    between atoms: _667  and  _668
REMARK  260  A    between atoms: _671  and  _673
REMARK  261  A    between atoms: _673  and  _674
REMARK  262  A    between atoms: _677  and  _679
REMARK  263  A    between atoms: _679  and  _680
REMARK  264  A    between atoms: _679  and  _682
REMARK  265  A    between atoms: _682  and  _683
REMARK  266  A    between atoms: _686  and  _688
REMARK  267  A    between atoms: _688  and  _689
REMARK  268  A    between atoms: _688  and  _691
REMARK  269  A    between atoms: _694  and  _696
REMARK  270  A    between atoms: _696  and  _697
REMARK  271  A    between atoms: _696  and  _699
REMARK  272  A    between atoms: _699  and  _700
REMARK  273  A    between atoms: _700  and  _701
REMARK  274  A    between atoms: _704  and  _706
REMARK  275  A    between atoms: _706  and  _707
REMARK  276  A    between atoms: _706  and  _709
REMARK  277  A    between atoms: _709  and  _710
REMARK  278  A    between atoms: _715  and  _716
REMARK  279  A    between atoms: _718  and  _720
REMARK  280  A    between atoms: _720  and  _721
REMARK  281  A    between atoms: _720  and  _723
REMARK  282  A    between atoms: _723  and  _724
REMARK  283  A    between atoms: _724  and  _725
REMARK  284  A    between atoms: _725  and  _726
REMARK  285  A    between atoms: _735  and  _737
REMARK  286  A    between atoms: _737  and  _738
REMARK  287  A    between atoms: _737  and  _740
REMARK  288  A    between atoms: _740  and  _741
REMARK  289  A    between atoms: _746  and  _747
REMARK  290  A    between atoms: _749  and  _751
REMARK  291  A    between atoms: _751  and  _752
REMARK  292  A    between atoms: _751  and  _754
REMARK  293  A    between atoms: _754  and  _755
REMARK  294  A    between atoms: _758  and  _760
REMARK  295  A    between atoms: _760  and  _761
REMARK  296  A    between atoms: _760  and  _763
REMARK  297  A    between atoms: _763  and  _764
REMARK  298  A    between atoms: _766  and  _768
REMARK  299  A    between atoms: _768  and  _769
REMARK  300  A    between atoms: _768  and  _771
REMARK  301  A    between atoms: _771  and  _772
REMARK  302  A    between atoms: _778  and  _780
REMARK  303  A    between atoms: _780  and  _781
REMARK  304  A    between atoms: _780  and  _783
REMARK  305  A    between atoms: _783  and  _784
REMARK  306  A    between atoms: _784  and  _785
REMARK                            x       y       z     vdW  Elec       q    Type
REMARK                         _______ _______ _______ _____ _____    ______ ____
ROOT
ATOM      1  CA  SER A   1      33.368 -18.612   6.870  0.00  0.00    +0.163 C 
ENDROOT
BRANCH   1   2
ATOM      2  N   SER A   1      34.370 -17.544   6.821  0.00  0.00    -0.237 NA
ATOM      3  H   SER A   1      34.156 -16.612   7.230  0.00  0.00    +0.142 HD
ENDBRANCH   1   2
BRANCH   1   4
ATOM      4  C   SER A   1      32.865 -19.037   5.491  0.00  0.00    +0.227 C 
ATOM      5  O   SER A   1      32.386 -20.158   5.346  0.00  0.00    -0.287 OA
ENDBRANCH   1   4
BRANCH   1   6
ATOM      6  CB  SER A   1      32.195 -18.265   7.799  0.00  0.00    +0.162 C 
BRANCH   6   7
ATOM      7  OG  SER A   1      31.628 -17.031   7.432  0.00  0.00    -0.380 OA
ATOM      8  H   SER A   1      32.314 -16.321   7.499  0.00  0.00    +0.211 HD
ENDBRANCH   6   7
ENDBRANCH   1   6
TORSDOF 4
REMARK  Name = ../refined-set-2016/4ca7/4ca7_pocket.pdb
REMARK  306 active torsions:
REMARK  status: ('A' for Active; 'I' for Inactive)
REMARK    1  A    between atoms: _1  and  _3
REMARK    2  A    between atoms: _3  and  _4
REMARK    3  A    between atoms: _3  and  _6
REMARK    4  A    between atoms: _6  and  _7
REMARK    5  A    between atoms: _7  and  _8
REMARK    6  A    between atoms: _8  and  _9
REMARK    7  A    between atoms: _9  and  _10
REMARK    8  A    between atoms: _14  and  _16
REMARK    9  A    between atoms: _16  and  _17
REMARK   10  A    between atoms: _16  and  _19
REMARK   11  A    between atoms: _19  and  _20
REMARK   12  A    between atoms: _20  and  _21
REMARK   13  A    between atoms: _24  and  _26
REMARK   14  A    between atoms: _26  and  _27
REMARK   15  A    between atoms: _26  and  _29
REMARK   16  A    between atoms: _29  and  _30
REMARK   17  A    between atoms: _30  and  _31
REMARK   18  A    between atoms: _34  and  _36
REMARK   19  A    between atoms: _36  and  _37
REMARK   20  A    between atoms: _36  and  _39
REMARK   21  A    between atoms: _39  and  _40
REMARK   22  A    between atoms: _45  and  _47
REMARK   23  A    between atoms: _47  and  _48
REMARK   24  A    between atoms: _47  and  _50
REMARK   25  A    between atoms: _50  and  _51
REMARK   26  A    between atoms: _61  and  _63
REMARK   27  A    between atoms: _63  and  _64
REMARK   28  A    between atoms: _63  and  _66
REMARK   29  A    between atoms: _66  and  _67
REMARK   30  A    between atoms: _67  and  _68
REMARK   31  A    between atoms: _73  and  _75
REMARK   32  A    between atoms: _75  and  _76
REMARK   33  A    between atoms: _75  and  _78
REMARK   34  A    between atoms: _78  and  _79
REMARK   35  A    between atoms: _79  and  _80
REMARK   36  A    between atoms: _85  and  _87
REMARK   37  A    between atoms: _87  and  _88
REMARK   38  A    between atoms: _87  and  _90
REMARK   39  A    between atoms: _90  and  _91
REMARK   40  A    between atoms: _93  and  _95
REMARK   41  A    between atoms: _95  and  _96
REMARK   42  A    between atoms: _95  and  _98
REMARK   43  A    between atoms: _101  and  _103
REMARK   44  A    between atoms: _103  and  _104
REMARK   45  A    between atoms: _103  and  _106
REMARK   46  A    between atoms: _108  and  _110
REMARK   47  A    between atoms: _110  and  _111
REMARK   48  A    between atoms: _110  and  _113
REMARK   49  A    between atoms: _113  and  _114
REMARK   50  A    between atoms: _119  and  _121
REMARK   51  A    between atoms: _121  and  _122
REMARK   52  A    between atoms: _125  and  _127
REMARK   53  A    between atoms: _127  and  _128
REMARK   54  A    between atoms: _127  and  _130
REMARK   55  A    between atoms: _130  and  _131
REMARK   56  A    between atoms: _133  and  _135
REMARK   57  A    between atoms: _135  and  _136
REMARK   58  A    between atoms: _139  and  _141
REMARK   59  A    between atoms: _141  and  _142
REMARK   60  A    between atoms: _141  and  _144
REMARK   61  A    between atoms: _144  and  _145
REMARK   62  A    between atoms: _155  and  _157
REMARK   63  A    between atoms: _157  and  _158
REMARK   64  A    between atoms: _157  and  _160
REMARK   65  A    between atoms: _160  and  _161
REMARK   66  A    between atoms: _164  and  _166
REMARK   67  A    between atoms: _166  and  _167
REMARK   68  A    between atoms: _166  and  _169
REMARK   69  A    between atoms: _169  and  _170
REMARK   70  A    between atoms: _175  and  _176
REMARK   71  A    between atoms: _178  and  _180
REMARK   72  A    between atoms: _180  and  _181
REMARK   73  A    between atoms: _180  and  _183
REMARK   74  A    between atoms: _183  and  _184
REMARK   75  A    between atoms: _184  and  _185
REMARK   76  A    between atoms: _185  and  _186
REMARK   77  A    between atoms: _195  and  _197
REMARK   78  A    between atoms: _197  and  _198
REMARK   79  A    between atoms: _197  and  _200
REMARK   80  A    between atoms: _200  and  _201
REMARK   81  A    between atoms: _204  and  _206
REMARK   82  A    between atoms: _206  and  _207
REMARK   83  A    between atoms: _206  and  _209
REMARK   84  A    between atoms: _209  and  _210
REMARK   85  A    between atoms: _210  and  _211
REMARK   86  A    between atoms: _211  and  _212
REMARK   87  A    between atoms: _212  and  _213
REMARK   88  A    between atoms: _217  and  _219
REMARK   89  A    between atoms: _219  and  _220
REMARK   90  A    between atoms: _219  and  _222
REMARK   91  A    between atoms: _222  and  _223
REMARK   92  A    between atoms: _223  and  _224
REMARK   93  A    between atoms: _229  and  _231
REMARK   94  A    between atoms: _231  and  _232
REMARK   95  A    between atoms: _231  and  _234
REMARK   96  A    between atoms: _234  and  _235
REMARK   97  A    between atoms: _235  and  _236
REMARK   98  A    between atoms: _236  and  _237
REMARK   99  A    between atoms: _246  and  _248
REMARK  100  A    between atoms: _248  and  _249
REMARK  101  A    between atoms: _248  and  _251
REMARK  102  A    between atoms: _251  and  _252
REMARK  103  A    between atoms: _252  and  _253
REMARK  104  A    between atoms: _258  and  _260
REMARK  105  A    between atoms: _260  and  _261
REMARK  106  A    between atoms: _260  and  _263
REMARK  107  A    between atoms: _263  and  _264
REMARK  108  A    between atoms: _267  and  _269
REMARK  109  A    between atoms: _269  and  _270
REMARK  110  A    between atoms: _269  and  _272
REMARK  111  A    between atoms: _272  and  _273
REMARK  112  A    between atoms: _273  and  _274
REMARK  113  A    between atoms: _279  and  _281
REMARK  114  A    between atoms: _281  and  _282
REMARK  115  A    between atoms: _281  and  _284
REMARK  116  A    between atoms: _284  and  _285
REMARK  117  A    between atoms: _288  and  _290
REMARK  118  A    between atoms: _290  and  _291
REMARK  119  A    between atoms: _290  and  _293
REMARK  120  A    between atoms: _293  and  _294
REMARK  121  A    between atoms: _300  and  _302
REMARK  122  A    between atoms: _302  and  _303
REMARK  123  A    between atoms: _302  and  _305
REMARK  124  A    between atoms: _305  and  _306
REMARK  125  A    between atoms: _309  and  _311
REMARK  126  A    between atoms: _311  and  _312
REMARK  127  A    between atoms: _311  and  _314
REMARK  128  A    between atoms: _317  and  _319
REMARK  129  A    between atoms: _319  and  _320
REMARK  130  A    between atoms: _319  and  _322
REMARK  131  A    between atoms: _322  and  _323
REMARK  132  A    between atoms: _328  and  _330
REMARK  133  A    between atoms: _341  and  _344
REMARK  134  A    between atoms: _344  and  _345
REMARK  135  A    between atoms: _345  and  _346
REMARK  136  A    between atoms: _351  and  _354
REMARK  137  A    between atoms: _354  and  _355
REMARK  138  A    between atoms: _365  and  _366
REMARK  139  A    between atoms: _374  and  _376
REMARK  140  A    between atoms: _376  and  _377
REMARK  141  A    between atoms: _376  and  _379
REMARK  142  A    between atoms: _379  and  _380
REMARK  143  A    between atoms: _383  and  _385
REMARK  144  A    between atoms: _385  and  _386
REMARK  145  A    between atoms: _385  and  _388
REMARK  146  A    between atoms: _388  and  _389
REMARK  147  A    between atoms: _394  and  _395
REMARK  148  A    between atoms: _397  and  _399
REMARK  149  A    between atoms: _399  and  _400
REMARK  150  A    between atoms: _399  and  _402
REMARK  151  A    between atoms: _402  and  _403
REMARK  152  A    between atoms: _409  and  _411
REMARK  153  A    between atoms: _411  and  _412
REMARK  154  A    between atoms: _411  and  _414
REMARK  155  A    between atoms: _414  and  _415
REMARK  156  A    between atoms: _420  and  _421
REMARK  157  A    between atoms: _423  and  _425
REMARK  158  A    between atoms: _425  and  _426
REMARK  159  A    between atoms: _425  and  _428
REMARK  160  A    between atoms: _428  and  _429
REMARK  161  A    between atoms: _429  and  _430
REMARK  162  A    between atoms: _430  and  _431
REMARK  163  A    between atoms: _440  and  _442
REMARK  164  A    between atoms: _442  and  _443
REMARK  165  A    between atoms: _442  and  _445
REMARK  166  A    between atoms: _445  and  _446
REMARK  167  A    between atoms: _449  and  _451
REMARK  168  A    between atoms: _451  and  _452
REMARK  169  A    between atoms: _454  and  _456
REMARK  170  A    between atoms: _456  and  _457
REMARK  171  A    between atoms: _456  and  _459
REMARK  172  A    between atoms: _459  and  _460
REMARK  173  A    between atoms: _466  and  _467
REMARK  174  A    between atoms: _472  and  _474
REMARK  175  A    between atoms: _474  and  _475
REMARK  176  A    between atoms: _477  and  _479
REMARK  177  A    between atoms: _479  and  _480
REMARK  178  A    between atoms: _479  and  _482
REMARK  179  A    between atoms: _482  and  _483
REMARK  180  A    between atoms: _489  and  _491
REMARK  181  A    between atoms: _491  and  _492
REMARK  182  A    between atoms: _491  and  _494
REMARK  183  A    between atoms: _494  and  _495
REMARK  184  A    between atoms: _500  and  _502
REMARK  185  A    between atoms: _502  and  _503
REMARK  186  A    between atoms: _502  and  _505
REMARK  187  A    between atoms: _505  and  _506
REMARK  188  A    between atoms: _506  and  _507
REMARK  189  A    between atoms: _507  and  _508
REMARK  190  A    between atoms: _508  and  ZN_790
REMARK  191  A    between atoms: _510  and  _512
REMARK  192  A    between atoms: _512  and  _513
REMARK  193  A    between atoms: _516  and  _518
REMARK  194  A    between atoms: _518  and  _519
REMARK  195  A    between atoms: _521  and  _523
REMARK  196  A    between atoms: _523  and  _524
REMARK  197  A    between atoms: _523  and  _526
REMARK  198  A    between atoms: _526  and  _527
REMARK  199  A    between atoms: _530  and  _532
REMARK  200  A    between atoms: _532  and  _533
REMARK  201  A    between atoms: _532  and  _535
REMARK  202  A    between atoms: _538  and  _540
REMARK  203  A    between atoms: _540  and  _541
REMARK  204  A    between atoms: _540  and  _543
REMARK  205  A    between atoms: _543  and  _544
REMARK  206  A    between atoms: _546  and  _548
REMARK  207  A    between atoms: _548  and  _549
REMARK  208  A    between atoms: _548  and  _551
REMARK  209  A    between atoms: _551  and  _552
REMARK  210  A    between atoms: _555  and  _557
REMARK  211  A    between atoms: _557  and  _558
REMARK  212  A    between atoms: _557  and  _560
REMARK  213  A    between atoms: _560  and  _561
REMARK  214  A    between atoms: _563  and  _565
REMARK  215  A    between atoms: _565  and  _566
REMARK  216  A    between atoms: _565  and  _568
REMARK  217  A    between atoms: _568  and  _569
REMARK  218  A    between atoms: _572  and  _574
REMARK  219  A    between atoms: _574  and  _575
REMARK  220  A    between atoms: _574  and  _577
REMARK  221  A    between atoms: _577  and  _578
REMARK  222  A    between atoms: _578  and  _579
REMARK  223  A    between atoms: _579  and  _580
REMARK  224  A    between atoms: _580  and  _581
REMARK  225  A    between atoms: _585  and  _587
REMARK  226  A    between atoms: _587  and  _588
REMARK  227  A    between atoms: _587  and  _590
REMARK  228  A    between atoms: _590  and  _591
REMARK  229  A    between atoms: _597  and  _599
REMARK  230  A    between atoms: _599  and  _600
REMARK  231  A    between atoms: _599  and  _602
REMARK  232  A    between atoms: _602  and  _603
REMARK  233  A    between atoms: _609  and  _611
REMARK  234  A    between atoms: _611  and  _612
REMARK  235  A    between atoms: _615  and  _617
REMARK  236  A    between atoms: _617  and  _618
REMARK  237  A    between atoms: _617  and  _620
REMARK  238  A    between atoms: _620  and  _621
REMARK  239  A    between atoms: _621  and  _622
REMARK  240  A    between atoms: _624  and  _626
REMARK  241  A    between atoms: _626  and  _627
REMARK  242  A    between atoms: _626  and  _629
REMARK  243  A    between atoms: _629  and  _630
REMARK  244  A    between atoms: _630  and  _631
REMARK  245  A    between atoms: _631  and  _632
REMARK  246  A    between atoms: _632  and  _633
REMARK  247  A    between atoms: _637  and  _639
REMARK  248  A    between atoms: _639  and  _640
REMARK  249  A    between atoms: _639  and  _642
REMARK  250  A    between atoms: _642  and  _643
REMARK  251  A    between atoms: _648  and  _649
REMARK  252  A    between atoms: _651  and  _653
REMARK  253  A    between atoms: _653  and  _654
REMARK  254  A    between atoms: _653  and  _656
REMARK  255  A    between atoms: _656  and  _657
REMARK  256  A    between atoms: _662  and  _664
REMARK  257  A    between atoms: _664  and  _665
REMARK  258  A    between atoms: _664  and  _667
REMARK  259  A    between atoms: _667  and  _668
REMARK  260  A    between atoms: _671  and  _673
REMARK  261  A    between atoms: _673  and  _674
REMARK  262  A    between atoms: _677  and  _679
REMARK  263  A    between atoms: _679  and  _680
REMARK  264  A    between atoms: _679  and  _682
REMARK  265  A    between atoms: _682  and  _683
REMARK  266  A    between atoms: _686  and  _688
REMARK  267  A    between atoms: _688  and  _689
REMARK  268  A    between atoms: _688  and  _691
REMARK  269  A    between atoms: _694  and  _696
REMARK  270  A    between atoms: _696  and  _697
REMARK  271  A    between atoms: _696  and  _699
REMARK  272  A    between atoms: _699  and  _700
REMARK  273  A    between atoms: _700  and  _701
REMARK  274  A    between atoms: _704  and  _706
REMARK  275  A    between atoms: _706  and  _707
REMARK  276  A    between atoms: _706  and  _709
REMARK  277  A    between atoms: _709  and  _710
REMARK  278  A    between atoms: _715  and  _716
REMARK  279  A    between atoms: _718  and  _720
REMARK  280  A    between atoms: _720  and  _721
REMARK  281  A    between atoms: _720  and  _723
REMARK  282  A    between atoms: _723  and  _724
REMARK  283  A    between atoms: _724  and  _725
REMARK  284  A    between atoms: _725  and  _726
REMARK  285  A    between atoms: _735  and  _737
REMARK  286  A    between atoms: _737  and  _738
REMARK  287  A    between atoms: _737  and  _740
REMARK  288  A    between atoms: _740  and  _741
REMARK  289  A    between atoms: _746  and  _747
REMARK  290  A    between atoms: _749  and  _751
REMARK  291  A    between atoms: _751  and  _752
REMARK  292  A    between atoms: _751  and  _754
REMARK  293  A    between atoms: _754  and  _755
REMARK  294  A    between atoms: _758  and  _760
REMARK  295  A    between atoms: _760  and  _761
REMARK  296  A    between atoms: _760  and  _763
REMARK  297  A    between atoms: _763  and  _764
REMARK  298  A    between atoms: _766  and  _768
REMARK  299  A    between atoms: _768  and  _769
REMARK  300  A    between atoms: _768  and  _771
REMARK  301  A    between atoms: _771  and  _772
REMARK  302  A    between atoms: _778  and  _780
REMARK  303  A    between atoms: _780  and  _781
REMARK  304  A    between atoms: _780  and  _783
REMARK  305  A    between atoms: _783  and  _784
REMARK  306  A    between atoms: _784  and  _785
REMARK                            x       y       z     vdW  Elec       q    Type
REMARK                         _______ _______ _______ _____ _____    ______ ____
ROOT
ATOM      1  CA  SER A   5      22.927   0.763   8.477  0.00  0.00    +0.178 C 
ENDROOT
BRANCH   1   4
ATOM      2  C   ALA A   4      24.036  -0.791   6.966  0.00  0.00    +0.241 C 
ATOM      3  O   ALA A   4      25.142  -0.561   7.481  0.00  0.00    -0.273 OA
ATOM      4  N   SER A   5      22.913  -0.198   7.376  0.00  0.00    -0.295 N 
ATOM      5  H   SER A   5      22.014  -0.423   6.905  0.00  0.00    +0.150 HD
BRANCH   2   6
ATOM      6  CA  ALA A   4      23.903  -1.797   5.819  0.00  0.00    +0.149 C 
ATOM      7  CB  ALA A   4      23.689  -3.199   6.369  0.00  0.00    +0.031 C 
BRANCH   6   9
ATOM      8  C   HIS A   3      25.391  -0.704   4.185  0.00  0.00    +0.241 C 
ATOM      9  N   ALA A   4      25.050  -1.784   4.896  0.00  0.00    -0.297 N 
ATOM     10  H   ALA A   4      25.618  -2.649   4.793  0.00  0.00    +0.150 HD
ATOM     11  O   HIS A   3      24.904   0.421   4.368  0.00  0.00    -0.273 OA
BRANCH   8  12
ATOM     12  CA  HIS A   3      26.444  -0.908   3.102  0.00  0.00    +0.155 C 
BRANCH  12  15
ATOM     13  C   CYS A   2      24.740  -0.915   1.384  0.00  0.00    +0.242 C 
ATOM     14  O   CYS A   2      24.149  -1.835   1.950  0.00  0.00    -0.273 OA
ATOM     15  N   HIS A   3      25.894  -0.417   1.834  0.00  0.00    -0.297 N 
ATOM     16  H   HIS A   3      26.398   0.312   1.291  0.00  0.00    +0.150 HD
BRANCH  13  17
ATOM     17  CA  CYS A   2      24.146  -0.334   0.111  0.00  0.00    +0.160 C 
BRANCH  17  20
ATOM     18  C   VAL A   1      24.172   2.101   0.140  0.00  0.00    +0.238 C 
ATOM     19  O   VAL A   1      23.125   2.158   0.787  0.00  0.00    -0.274 OA
ATOM     20  N   CYS A   2      24.718   0.955  -0.266  0.00  0.00    -0.297 N 
ATOM     21  H   CYS A   2      25.569   0.980  -0.864  0.00  0.00    +0.150 HD
BRANCH  18  22
ATOM     22  CA  VAL A   1      24.882   3.386  -0.274  0.00  0.00    +0.145 C 
BRANCH  22  23
ATOM     23  CB  VAL A   1      25.259   4.217   0.983  0.00  0.00    +0.025 C 
ATOM     24  CG2 VAL A   1      26.212   3.438   1.884  0.00  0.00    +0.002 C 
ATOM     25  CG1 VAL A   1      25.887   5.543   0.572  0.00  0.00    +0.002 C 
ENDBRANCH  22  23
BRANCH  22  26
ATOM     26  N   VAL A   1      23.975   4.117  -1.157  0.00  0.00    -0.238 NA
ATOM     27  H   VAL A   1      23.336   4.827  -0.746  0.00  0.00    +0.142 HD
ENDBRANCH  22  26
ENDBRANCH  18  22
ENDBRANCH  17  20
BRANCH  17  28
ATOM     28  CB  CYS A   2      24.238  -1.377  -1.015  0.00  0.00    +0.098 C 
ATOM     29  SG  CYS A   2      22.739  -1.609  -2.018  0.00  0.00    -0.080 S 
ENDBRANCH  17  28
ENDBRANCH  13  17
ENDBRANCH  12  15
BRANCH  12  30
ATOM     30  CB  HIS A   3      27.765  -0.224   3.487  0.00  0.00    +0.076 C 
BRANCH  30  31
ATOM     31  CG  HIS A   3      28.469  -0.907   4.619  0.00  0.00    +0.082 A 
ATOM     32  CD2 HIS A   3      28.267  -0.849   5.958  0.00  0.00    +0.115 A 
ATOM     33  NE2 HIS A   3      29.167  -1.710   6.543  0.00  0.00    -0.221 NA
ATOM     34  CE1 HIS A   3      29.893  -2.276   5.595  0.00  0.00    +0.199 A 
ATOM     35  ND1 HIS A   3      29.490  -1.811   4.426  0.00  0.00    -0.227 NA
ENDBRANCH  30  31
ENDBRANCH  12  30
ENDBRANCH   8  12
ENDBRANCH   6   9
ENDBRANCH   2   6
ENDBRANCH   1   4
BRANCH   1  36
ATOM     36  C   SER A   5      21.584   0.910   9.199  0.00  0.00    +0.243 C 
ATOM     37  N   ALA A   6      21.663   1.278  10.478  0.00  0.00    -0.297 N 
ATOM     38  H   ALA A   6      22.608   1.393  10.896  0.00  0.00    +0.150 HD
ATOM     39  O   SER A   5      20.520   0.692   8.617  0.00  0.00    -0.273 OA
BRANCH  37  40
ATOM     40  CA  ALA A   6      20.497   1.530  11.330  0.00  0.00    +0.149 C 
ATOM     41  CB  ALA A   6      20.539   0.629  12.555  0.00  0.00    +0.031 C 
BRANCH  40  42
ATOM     42  C   ALA A   6      20.480   3.009  11.753  0.00  0.00    +0.241 C 
ATOM     43  O   ALA A   6      21.539   3.603  12.016  0.00  0.00    -0.273 OA
ATOM     44  N   TRP A   7      19.281   3.585  11.822  0.00  0.00    -0.297 N 
ATOM     45  H   TRP A   7      18.436   2.979  11.819  0.00  0.00    +0.150 HD
BRANCH  44  46
ATOM     46  CA  TRP A   7      19.104   5.032  11.902  0.00  0.00    +0.153 C 
BRANCH  46  47
ATOM     47  C   TRP A   7      18.156   5.420  13.034  0.00  0.00    +0.241 C 
ATOM     48  N   ASP A   8      18.609   6.339  13.889  0.00  0.00    -0.298 N 
ATOM     49  H   ASP A   8      19.582   6.688  13.777  0.00  0.00    +0.150 HD
ATOM     50  O   TRP A   7      17.049   4.874  13.136  0.00  0.00    -0.273 OA
BRANCH  48  51
ATOM     51  CA  ASP A   8      17.792   6.876  14.977  0.00  0.00    +0.148 C 
BRANCH  51  52
ATOM     52  C   ASP A   8      17.439   8.331  14.656  0.00  0.00    +0.227 C 
ATOM     53  O   ASP A   8      18.328   9.163  14.448  0.00  0.00    -0.286 OA
ENDBRANCH  51  52
BRANCH  51  54
ATOM     54  CB  ASP A   8      18.547   6.789  16.314  0.00  0.00    +0.142 C 
BRANCH  54  55
ATOM     55  CG  ASP A   8      17.681   7.150  17.513  0.00  0.00    +0.367 C 
ATOM     56  OD2 ASP A   8      18.173   7.024  18.666  0.00  0.00    -0.246 OA
ATOM     57  OD1 ASP A   8      16.509   7.563  17.317  0.00  0.00    -0.246 OA
ENDBRANCH  54  55
ENDBRANCH  51  54
ENDBRANCH  48  51
ENDBRANCH  46  47
BRANCH  46  58
ATOM     58  CB  TRP A   7      18.549   5.561  10.577  0.00  0.00    +0.057 C 
BRANCH  58  59
ATOM     59  CG  TRP A   7      19.488   5.433   9.429  0.00  0.00    -0.002 A 
ATOM     60  CD2 TRP A   7      20.220   6.489   8.794  0.00  0.00    +0.013 A 
ATOM     61  CE3 TRP A   7      20.306   7.875   9.000  0.00  0.00    +0.001 A 
ATOM     62  CZ3 TRP A   7      21.137   8.624   8.168  0.00  0.00    +0.000 A 
ATOM     63  CH2 TRP A   7      21.879   8.009   7.139  0.00  0.00    +0.001 A 
ATOM     64  CZ2 TRP A   7      21.811   6.653   6.917  0.00  0.00    +0.017 A 
ATOM     65  CE2 TRP A   7      20.976   5.904   7.749  0.00  0.00    +0.056 A 
ATOM     66  NE1 TRP A   7      20.711   4.560   7.752  0.00  0.00    -0.352 N 
ATOM     67  HE1 TRP A   7      21.120   3.862   7.098  0.00  0.00    +0.166 HD
ATOM     68  CD1 TRP A   7      19.818   4.282   8.758  0.00  0.00    +0.068 A 
ENDBRANCH  58  59
ENDBRANCH  46  58
ENDBRANCH  44  46
ENDBRANCH  40  42
ENDBRANCH  37  40
ENDBRANCH   1  36
BRANCH   1  69
ATOM     69  CB  SER A   5      23.407   2.132   7.987  0.00  0.00    +0.166 C 
BRANCH  69  70
ATOM     70  OG  SER A   5      22.486   2.678   7.061  0.00  0.00    -0.380 OA
ATOM     71  H   SER A   5      22.401   2.070   6.285  0.00  0.00    +0.211 HD
ENDBRANCH  69  70
ENDBRANCH   1  69
TORSDOF 26
REMARK  Name = ../refined-set-2016/4ca7/4ca7_pocket.pdb
REMARK  306 active torsions:
REMARK  status: ('A' for Active; 'I' for Inactive)
REMARK    1  A    between atoms: _1  and  _3
REMARK    2  A    between atoms: _3  and  _4
REMARK    3  A    between atoms: _3  and  _6
REMARK    4  A    between atoms: _6  and  _7
REMARK    5  A    between atoms: _7  and  _8
REMARK    6  A    between atoms: _8  and  _9
REMARK    7  A    between atoms: _9  and  _10
REMARK    8  A    between atoms: _14  and  _16
REMARK    9  A    between atoms: _16  and  _17
REMARK   10  A    between atoms: _16  and  _19
REMARK   11  A    between atoms: _19  and  _20
REMARK   12  A    between atoms: _20  and  _21
REMARK   13  A    between atoms: _24  and  _26
REMARK   14  A    between atoms: _26  and  _27
REMARK   15  A    between atoms: _26  and  _29
REMARK   16  A    between atoms: _29  and  _30
REMARK   17  A    between atoms: _30  and  _31
REMARK   18  A    between atoms: _34  and  _36
REMARK   19  A    between atoms: _36  and  _37
REMARK   20  A    between atoms: _36  and  _39
REMARK   21  A    between atoms: _39  and  _40
REMARK   22  A    between atoms: _45  and  _47
REMARK   23  A    between atoms: _47  and  _48
REMARK   24  A    between atoms: _47  and  _50
REMARK   25  A    between atoms: _50  and  _51
REMARK   26  A    between atoms: _61  and  _63
REMARK   27  A    between atoms: _63  and  _64
REMARK   28  A    between atoms: _63  and  _66
REMARK   29  A    between atoms: _66  and  _67
REMARK   30  A    between atoms: _67  and  _68
REMARK   31  A    between atoms: _73  and  _75
REMARK   32  A    between atoms: _75  and  _76
REMARK   33  A    between atoms: _75  and  _78
REMARK   34  A    between atoms: _78  and  _79
REMARK   35  A    between atoms: _79  and  _80
REMARK   36  A    between atoms: _85  and  _87
REMARK   37  A    between atoms: _87  and  _88
REMARK   38  A    between atoms: _87  and  _90
REMARK   39  A    between atoms: _90  and  _91
REMARK   40  A    between atoms: _93  and  _95
REMARK   41  A    between atoms: _95  and  _96
REMARK   42  A    between atoms: _95  and  _98
REMARK   43  A    between atoms: _101  and  _103
REMARK   44  A    between atoms: _103  and  _104
REMARK   45  A    between atoms: _103  and  _106
REMARK   46  A    between atoms: _108  and  _110
REMARK   47  A    between atoms: _110  and  _111
REMARK   48  A    between atoms: _110  and  _113
REMARK   49  A    between atoms: _113  and  _114
REMARK   50  A    between atoms: _119  and  _121
REMARK   51  A    between atoms: _121  and  _122
REMARK   52  A    between atoms: _125  and  _127
REMARK   53  A    between atoms: _127  and  _128
REMARK   54  A    between atoms: _127  and  _130
REMARK   55  A    between atoms: _130  and  _131
REMARK   56  A    between atoms: _133  and  _135
REMARK   57  A    between atoms: _135  and  _136
REMARK   58  A    between atoms: _139  and  _141
REMARK   59  A    between atoms: _141  and  _142
REMARK   60  A    between atoms: _141  and  _144
REMARK   61  A    between atoms: _144  and  _145
REMARK   62  A    between atoms: _155  and  _157
REMARK   63  A    between atoms: _157  and  _158
REMARK   64  A    between atoms: _157  and  _160
REMARK   65  A    between atoms: _160  and  _161
REMARK   66  A    between atoms: _164  and  _166
REMARK   67  A    between atoms: _166  and  _167
REMARK   68  A    between atoms: _166  and  _169
REMARK   69  A    between atoms: _169  and  _170
REMARK   70  A    between atoms: _175  and  _176
REMARK   71  A    between atoms: _178  and  _180
REMARK   72  A    between atoms: _180  and  _181
REMARK   73  A    between atoms: _180  and  _183
REMARK   74  A    between atoms: _183  and  _184
REMARK   75  A    between atoms: _184  and  _185
REMARK   76  A    between atoms: _185  and  _186
REMARK   77  A    between atoms: _195  and  _197
REMARK   78  A    between atoms: _197  and  _198
REMARK   79  A    between atoms: _197  and  _200
REMARK   80  A    between atoms: _200  and  _201
REMARK   81  A    between atoms: _204  and  _206
REMARK   82  A    between atoms: _206  and  _207
REMARK   83  A    between atoms: _206  and  _209
REMARK   84  A    between atoms: _209  and  _210
REMARK   85  A    between atoms: _210  and  _211
REMARK   86  A    between atoms: _211  and  _212
REMARK   87  A    between atoms: _212  and  _213
REMARK   88  A    between atoms: _217  and  _219
REMARK   89  A    between atoms: _219  and  _220
REMARK   90  A    between atoms: _219  and  _222
REMARK   91  A    between atoms: _222  and  _223
REMARK   92  A    between atoms: _223  and  _224
REMARK   93  A    between atoms: _229  and  _231
REMARK   94  A    between atoms: _231  and  _232
REMARK   95  A    between atoms: _231  and  _234
REMARK   96  A    between atoms: _234  and  _235
REMARK   97  A    between atoms: _235  and  _236
REMARK   98  A    between atoms: _236  and  _237
REMARK   99  A    between atoms: _246  and  _248
REMARK  100  A    between atoms: _248  and  _249
REMARK  101  A    between atoms: _248  and  _251
REMARK  102  A    between atoms: _251  and  _252
REMARK  103  A    between atoms: _252  and  _253
REMARK  104  A    between atoms: _258  and  _260
REMARK  105  A    between atoms: _260  and  _261
REMARK  106  A    between atoms: _260  and  _263
REMARK  107  A    between atoms: _263  and  _264
REMARK  108  A    between atoms: _267  and  _269
REMARK  109  A    between atoms: _269  and  _270
REMARK  110  A    between atoms: _269  and  _272
REMARK  111  A    between atoms: _272  and  _273
REMARK  112  A    between atoms: _273  and  _274
REMARK  113  A    between atoms: _279  and  _281
REMARK  114  A    between atoms: _281  and  _282
REMARK  115  A    between atoms: _281  and  _284
REMARK  116  A    between atoms: _284  and  _285
REMARK  117  A    between atoms: _288  and  _290
REMARK  118  A    between atoms: _290  and  _291
REMARK  119  A    between atoms: _290  and  _293
REMARK  120  A    between atoms: _293  and  _294
REMARK  121  A    between atoms: _300  and  _302
REMARK  122  A    between atoms: _302  and  _303
REMARK  123  A    between atoms: _302  and  _305
REMARK  124  A    between atoms: _305  and  _306
REMARK  125  A    between atoms: _309  and  _311
REMARK  126  A    between atoms: _311  and  _312
REMARK  127  A    between atoms: _311  and  _314
REMARK  128  A    between atoms: _317  and  _319
REMARK  129  A    between atoms: _319  and  _320
REMARK  130  A    between atoms: _319  and  _322
REMARK  131  A    between atoms: _322  and  _323
REMARK  132  A    between atoms: _328  and  _330
REMARK  133  A    between atoms: _341  and  _344
REMARK  134  A    between atoms: _344  and  _345
REMARK  135  A    between atoms: _345  and  _346
REMARK  136  A    between atoms: _351  and  _354
REMARK  137  A    between atoms: _354  and  _355
REMARK  138  A    between atoms: _365  and  _366
REMARK  139  A    between atoms: _374  and  _376
REMARK  140  A    between atoms: _376  and  _377
REMARK  141  A    between atoms: _376  and  _379
REMARK  142  A    between atoms: _379  and  _380
REMARK  143  A    between atoms: _383  and  _385
REMARK  144  A    between atoms: _385  and  _386
REMARK  145  A    between atoms: _385  and  _388
REMARK  146  A    between atoms: _388  and  _389
REMARK  147  A    between atoms: _394  and  _395
REMARK  148  A    between atoms: _397  and  _399
REMARK  149  A    between atoms: _399  and  _400
REMARK  150  A    between atoms: _399  and  _402
REMARK  151  A    between atoms: _402  and  _403
REMARK  152  A    between atoms: _409  and  _411
REMARK  153  A    between atoms: _411  and  _412
REMARK  154  A    between atoms: _411  and  _414
REMARK  155  A    between atoms: _414  and  _415
REMARK  156  A    between atoms: _420  and  _421
REMARK  157  A    between atoms: _423  and  _425
REMARK  158  A    between atoms: _425  and  _426
REMARK  159  A    between atoms: _425  and  _428
REMARK  160  A    between atoms: _428  and  _429
REMARK  161  A    between atoms: _429  and  _430
REMARK  162  A    between atoms: _430  and  _431
REMARK  163  A    between atoms: _440  and  _442
REMARK  164  A    between atoms: _442  and  _443
REMARK  165  A    between atoms: _442  and  _445
REMARK  166  A    between atoms: _445  and  _446
REMARK  167  A    between atoms: _449  and  _451
REMARK  168  A    between atoms: _451  and  _452
REMARK  169  A    between atoms: _454  and  _456
REMARK  170  A    between atoms: _456  and  _457
REMARK  171  A    between atoms: _456  and  _459
REMARK  172  A    between atoms: _459  and  _460
REMARK  173  A    between atoms: _466  and  _467
REMARK  174  A    between atoms: _472  and  _474
REMARK  175  A    between atoms: _474  and  _475
REMARK  176  A    between atoms: _477  and  _479
REMARK  177  A    between atoms: _479  and  _480
REMARK  178  A    between atoms: _479  and  _482
REMARK  179  A    between atoms: _482  and  _483
REMARK  180  A    between atoms: _489  and  _491
REMARK  181  A    between atoms: _491  and  _492
REMARK  182  A    between atoms: _491  and  _494
REMARK  183  A    between atoms: _494  and  _495
REMARK  184  A    between atoms: _500  and  _502
REMARK  185  A    between atoms: _502  and  _503
REMARK  186  A    between atoms: _502  and  _505
REMARK  187  A    between atoms: _505  and  _506
REMARK  188  A    between atoms: _506  and  _507
REMARK  189  A    between atoms: _507  and  _508
REMARK  190  A    between atoms: _508  and  ZN_790
REMARK  191  A    between atoms: _510  and  _512
REMARK  192  A    between atoms: _512  and  _513
REMARK  193  A    between atoms: _516  and  _518
REMARK  194  A    between atoms: _518  and  _519
REMARK  195  A    between atoms: _521  and  _523
REMARK  196  A    between atoms: _523  and  _524
REMARK  197  A    between atoms: _523  and  _526
REMARK  198  A    between atoms: _526  and  _527
REMARK  199  A    between atoms: _530  and  _532
REMARK  200  A    between atoms: _532  and  _533
REMARK  201  A    between atoms: _532  and  _535
REMARK  202  A    between atoms: _538  and  _540
REMARK  203  A    between atoms: _540  and  _541
REMARK  204  A    between atoms: _540  and  _543
REMARK  205  A    between atoms: _543  and  _544
REMARK  206  A    between atoms: _546  and  _548
REMARK  207  A    between atoms: _548  and  _549
REMARK  208  A    between atoms: _548  and  _551
REMARK  209  A    between atoms: _551  and  _552
REMARK  210  A    between atoms: _555  and  _557
REMARK  211  A    between atoms: _557  and  _558
REMARK  212  A    between atoms: _557  and  _560
REMARK  213  A    between atoms: _560  and  _561
REMARK  214  A    between atoms: _563  and  _565
REMARK  215  A    between atoms: _565  and  _566
REMARK  216  A    between atoms: _565  and  _568
REMARK  217  A    between atoms: _568  and  _569
REMARK  218  A    between atoms: _572  and  _574
REMARK  219  A    between atoms: _574  and  _575
REMARK  220  A    between atoms: _574  and  _577
REMARK  221  A    between atoms: _577  and  _578
REMARK  222  A    between atoms: _578  and  _579
REMARK  223  A    between atoms: _579  and  _580
REMARK  224  A    between atoms: _580  and  _581
REMARK  225  A    between atoms: _585  and  _587
REMARK  226  A    between atoms: _587  and  _588
REMARK  227  A    between atoms: _587  and  _590
REMARK  228  A    between atoms: _590  and  _591
REMARK  229  A    between atoms: _597  and  _599
REMARK  230  A    between atoms: _599  and  _600
REMARK  231  A    between atoms: _599  and  _602
REMARK  232  A    between atoms: _602  and  _603
REMARK  233  A    between atoms: _609  and  _611
REMARK  234  A    between atoms: _611  and  _612
REMARK  235  A    between atoms: _615  and  _617
REMARK  236  A    between atoms: _617  and  _618
REMARK  237  A    between atoms: _617  and  _620
REMARK  238  A    between atoms: _620  and  _621
REMARK  239  A    between atoms: _621  and  _622
REMARK  240  A    between atoms: _624  and  _626
REMARK  241  A    between atoms: _626  and  _627
REMARK  242  A    between atoms: _626  and  _629
REMARK  243  A    between atoms: _629  and  _630
REMARK  244  A    between atoms: _630  and  _631
REMARK  245  A    between atoms: _631  and  _632
REMARK  246  A    between atoms: _632  and  _633
REMARK  247  A    between atoms: _637  and  _639
REMARK  248  A    between atoms: _639  and  _640
REMARK  249  A    between atoms: _639  and  _642
REMARK  250  A    between atoms: _642  and  _643
REMARK  251  A    between atoms: _648  and  _649
REMARK  252  A    between atoms: _651  and  _653
REMARK  253  A    between atoms: _653  and  _654
REMARK  254  A    between atoms: _653  and  _656
REMARK  255  A    between atoms: _656  and  _657
REMARK  256  A    between atoms: _662  and  _664
REMARK  257  A    between atoms: _664  and  _665
REMARK  258  A    between atoms: _664  and  _667
REMARK  259  A    between atoms: _667  and  _668
REMARK  260  A    between atoms: _671  and  _673
REMARK  261  A    between atoms: _673  and  _674
REMARK  262  A    between atoms: _677  and  _679
REMARK  263  A    between atoms: _679  and  _680
REMARK  264  A    between atoms: _679  and  _682
REMARK  265  A    between atoms: _682  and  _683
REMARK  266  A    between atoms: _686  and  _688
REMARK  267  A    between atoms: _688  and  _689
REMARK  268  A    between atoms: _688  and  _691
REMARK  269  A    between atoms: _694  and  _696
REMARK  270  A    between atoms: _696  and  _697
REMARK  271  A    between atoms: _696  and  _699
REMARK  272  A    between atoms: _699  and  _700
REMARK  273  A    between atoms: _700  and  _701
REMARK  274  A    between atoms: _704  and  _706
REMARK  275  A    between atoms: _706  and  _707
REMARK  276  A    between atoms: _706  and  _709
REMARK  277  A    between atoms: _709  and  _710
REMARK  278  A    between atoms: _715  and  _716
REMARK  279  A    between atoms: _718  and  _720
REMARK  280  A    between atoms: _720  and  _721
REMARK  281  A    between atoms: _720  and  _723
REMARK  282  A    between atoms: _723  and  _724
REMARK  283  A    between atoms: _724  and  _725
REMARK  284  A    between atoms: _725  and  _726
REMARK  285  A    between atoms: _735  and  _737
REMARK  286  A    between atoms: _737  and  _738
REMARK  287  A    between atoms: _737  and  _740
REMARK  288  A    between atoms: _740  and  _741
REMARK  289  A    between atoms: _746  and  _747
REMARK  290  A    between atoms: _749  and  _751
REMARK  291  A    between atoms: _751  and  _752
REMARK  292  A    between atoms: _751  and  _754
REMARK  293  A    between atoms: _754  and  _755
REMARK  294  A    between atoms: _758  and  _760
REMARK  295  A    between atoms: _760  and  _761
REMARK  296  A    between atoms: _760  and  _763
REMARK  297  A    between atoms: _763  and  _764
REMARK  298  A    between atoms: _766  and  _768
REMARK  299  A    between atoms: _768  and  _769
REMARK  300  A    between atoms: _768  and  _771
REMARK  301  A    between atoms: _771  and  _772
REMARK  302  A    between atoms: _778  and  _780
REMARK  303  A    between atoms: _780  and  _781
REMARK  304  A    between atoms: _780  and  _783
REMARK  305  A    between atoms: _783  and  _784
REMARK  306  A    between atoms: _784  and  _785
REMARK                            x       y       z     vdW  Elec       q    Type
REMARK                         _______ _______ _______ _____ _____    ______ ____
ROOT
ATOM      1  CG  TYR A   1      18.074  11.726  17.660  0.00  0.00    -0.020 A 
ATOM      2  CD2 TYR A   1      18.695  11.018  18.691  0.00  0.00    -0.001 A 
ATOM      3  CE2 TYR A   1      19.960  10.473  18.527  0.00  0.00    +0.036 A 
ATOM      4  CZ  TYR A   1      20.616  10.649  17.318  0.00  0.00    +0.134 A 
ATOM      5  CE1 TYR A   1      20.024  11.346  16.287  0.00  0.00    +0.036 A 
ATOM      6  CD1 TYR A   1      18.756  11.879  16.462  0.00  0.00    -0.001 A 
ENDROOT
BRANCH   4   7
ATOM      7  OH  TYR A   1      21.872  10.130  17.130  0.00  0.00    -0.506 OA
ATOM      8  HH  TYR A   1      21.854   9.491  16.374  0.00  0.00    +0.292 HD
ENDBRANCH   4   7
BRANCH   1   9
ATOM      9  CB  TYR A   1      16.692  12.300  17.835  0.00  0.00    +0.051 C 
BRANCH   9  10
ATOM     10  CA  TYR A   1      15.597  11.228  17.853  0.00  0.00    +0.137 C 
BRANCH  10  11
ATOM     11  N   TYR A   1      15.599  10.433  16.611  0.00  0.00    -0.239 NA
ATOM     12  H   TYR A   1      15.762   9.409  16.691  0.00  0.00    +0.142 HD
ENDBRANCH  10  11
BRANCH  10  13
ATOM     13  C   TYR A   1      14.247  11.838  18.234  0.00  0.00    +0.224 C 
ATOM     14  O   TYR A   1      14.192  12.852  18.927  0.00  0.00    -0.287 OA
ENDBRANCH  10  13
ENDBRANCH   9  10
ENDBRANCH   1   9
TORSDOF 5
REMARK  Name = ../refined-set-2016/4ca7/4ca7_pocket.pdb
REMARK  306 active torsions:
REMARK  status: ('A' for Active; 'I' for Inactive)
REMARK    1  A    between atoms: _1  and  _3
REMARK    2  A    between atoms: _3  and  _4
REMARK    3  A    between atoms: _3  and  _6
REMARK    4  A    between atoms: _6  and  _7
REMARK    5  A    between atoms: _7  and  _8
REMARK    6  A    between atoms: _8  and  _9
REMARK    7  A    between atoms: _9  and  _10
REMARK    8  A    between atoms: _14  and  _16
REMARK    9  A    between atoms: _16  and  _17
REMARK   10  A    between atoms: _16  and  _19
REMARK   11  A    between atoms: _19  and  _20
REMARK   12  A    between atoms: _20  and  _21
REMARK   13  A    between atoms: _24  and  _26
REMARK   14  A    between atoms: _26  and  _27
REMARK   15  A    between atoms: _26  and  _29
REMARK   16  A    between atoms: _29  and  _30
REMARK   17  A    between atoms: _30  and  _31
REMARK   18  A    between atoms: _34  and  _36
REMARK   19  A    between atoms: _36  and  _37
REMARK   20  A    between atoms: _36  and  _39
REMARK   21  A    between atoms: _39  and  _40
REMARK   22  A    between atoms: _45  and  _47
REMARK   23  A    between atoms: _47  and  _48
REMARK   24  A    between atoms: _47  and  _50
REMARK   25  A    between atoms: _50  and  _51
REMARK   26  A    between atoms: _61  and  _63
REMARK   27  A    between atoms: _63  and  _64
REMARK   28  A    between atoms: _63  and  _66
REMARK   29  A    between atoms: _66  and  _67
REMARK   30  A    between atoms: _67  and  _68
REMARK   31  A    between atoms: _73  and  _75
REMARK   32  A    between atoms: _75  and  _76
REMARK   33  A    between atoms: _75  and  _78
REMARK   34  A    between atoms: _78  and  _79
REMARK   35  A    between atoms: _79  and  _80
REMARK   36  A    between atoms: _85  and  _87
REMARK   37  A    between atoms: _87  and  _88
REMARK   38  A    between atoms: _87  and  _90
REMARK   39  A    between atoms: _90  and  _91
REMARK   40  A    between atoms: _93  and  _95
REMARK   41  A    between atoms: _95  and  _96
REMARK   42  A    between atoms: _95  and  _98
REMARK   43  A    between atoms: _101  and  _103
REMARK   44  A    between atoms: _103  and  _104
REMARK   45  A    between atoms: _103  and  _106
REMARK   46  A    between atoms: _108  and  _110
REMARK   47  A    between atoms: _110  and  _111
REMARK   48  A    between atoms: _110  and  _113
REMARK   49  A    between atoms: _113  and  _114
REMARK   50  A    between atoms: _119  and  _121
REMARK   51  A    between atoms: _121  and  _122
REMARK   52  A    between atoms: _125  and  _127
REMARK   53  A    between atoms: _127  and  _128
REMARK   54  A    between atoms: _127  and  _130
REMARK   55  A    between atoms: _130  and  _131
REMARK   56  A    between atoms: _133  and  _135
REMARK   57  A    between atoms: _135  and  _136
REMARK   58  A    between atoms: _139  and  _141
REMARK   59  A    between atoms: _141  and  _142
REMARK   60  A    between atoms: _141  and  _144
REMARK   61  A    between atoms: _144  and  _145
REMARK   62  A    between atoms: _155  and  _157
REMARK   63  A    between atoms: _157  and  _158
REMARK   64  A    between atoms: _157  and  _160
REMARK   65  A    between atoms: _160  and  _161
REMARK   66  A    between atoms: _164  and  _166
REMARK   67  A    between atoms: _166  and  _167
REMARK   68  A    between atoms: _166  and  _169
REMARK   69  A    between atoms: _169  and  _170
REMARK   70  A    between atoms: _175  and  _176
REMARK   71  A    between atoms: _178  and  _180
REMARK   72  A    between atoms: _180  and  _181
REMARK   73  A    between atoms: _180  and  _183
REMARK   74  A    between atoms: _183  and  _184
REMARK   75  A    between atoms: _184  and  _185
REMARK   76  A    between atoms: _185  and  _186
REMARK   77  A    between atoms: _195  and  _197
REMARK   78  A    between atoms: _197  and  _198
REMARK   79  A    between atoms: _197  and  _200
REMARK   80  A    between atoms: _200  and  _201
REMARK   81  A    between atoms: _204  and  _206
REMARK   82  A    between atoms: _206  and  _207
REMARK   83  A    between atoms: _206  and  _209
REMARK   84  A    between atoms: _209  and  _210
REMARK   85  A    between atoms: _210  and  _211
REMARK   86  A    between atoms: _211  and  _212
REMARK   87  A    between atoms: _212  and  _213
REMARK   88  A    between atoms: _217  and  _219
REMARK   89  A    between atoms: _219  and  _220
REMARK   90  A    between atoms: _219  and  _222
REMARK   91  A    between atoms: _222  and  _223
REMARK   92  A    between atoms: _223  and  _224
REMARK   93  A    between atoms: _229  and  _231
REMARK   94  A    between atoms: _231  and  _232
REMARK   95  A    between atoms: _231  and  _234
REMARK   96  A    between atoms: _234  and  _235
REMARK   97  A    between atoms: _235  and  _236
REMARK   98  A    between atoms: _236  and  _237
REMARK   99  A    between atoms: _246  and  _248
REMARK  100  A    between atoms: _248  and  _249
REMARK  101  A    between atoms: _248  and  _251
REMARK  102  A    between atoms: _251  and  _252
REMARK  103  A    between atoms: _252  and  _253
REMARK  104  A    between atoms: _258  and  _260
REMARK  105  A    between atoms: _260  and  _261
REMARK  106  A    between atoms: _260  and  _263
REMARK  107  A    between atoms: _263  and  _264
REMARK  108  A    between atoms: _267  and  _269
REMARK  109  A    between atoms: _269  and  _270
REMARK  110  A    between atoms: _269  and  _272
REMARK  111  A    between atoms: _272  and  _273
REMARK  112  A    between atoms: _273  and  _274
REMARK  113  A    between atoms: _279  and  _281
REMARK  114  A    between atoms: _281  and  _282
REMARK  115  A    between atoms: _281  and  _284
REMARK  116  A    between atoms: _284  and  _285
REMARK  117  A    between atoms: _288  and  _290
REMARK  118  A    between atoms: _290  and  _291
REMARK  119  A    between atoms: _290  and  _293
REMARK  120  A    between atoms: _293  and  _294
REMARK  121  A    between atoms: _300  and  _302
REMARK  122  A    between atoms: _302  and  _303
REMARK  123  A    between atoms: _302  and  _305
REMARK  124  A    between atoms: _305  and  _306
REMARK  125  A    between atoms: _309  and  _311
REMARK  126  A    between atoms: _311  and  _312
REMARK  127  A    between atoms: _311  and  _314
REMARK  128  A    between atoms: _317  and  _319
REMARK  129  A    between atoms: _319  and  _320
REMARK  130  A    between atoms: _319  and  _322
REMARK  131  A    between atoms: _322  and  _323
REMARK  132  A    between atoms: _328  and  _330
REMARK  133  A    between atoms: _341  and  _344
REMARK  134  A    between atoms: _344  and  _345
REMARK  135  A    between atoms: _345  and  _346
REMARK  136  A    between atoms: _351  and  _354
REMARK  137  A    between atoms: _354  and  _355
REMARK  138  A    between atoms: _365  and  _366
REMARK  139  A    between atoms: _374  and  _376
REMARK  140  A    between atoms: _376  and  _377
REMARK  141  A    between atoms: _376  and  _379
REMARK  142  A    between atoms: _379  and  _380
REMARK  143  A    between atoms: _383  and  _385
REMARK  144  A    between atoms: _385  and  _386
REMARK  145  A    between atoms: _385  and  _388
REMARK  146  A    between atoms: _388  and  _389
REMARK  147  A    between atoms: _394  and  _395
REMARK  148  A    between atoms: _397  and  _399
REMARK  149  A    between atoms: _399  and  _400
REMARK  150  A    between atoms: _399  and  _402
REMARK  151  A    between atoms: _402  and  _403
REMARK  152  A    between atoms: _409  and  _411
REMARK  153  A    between atoms: _411  and  _412
REMARK  154  A    between atoms: _411  and  _414
REMARK  155  A    between atoms: _414  and  _415
REMARK  156  A    between atoms: _420  and  _421
REMARK  157  A    between atoms: _423  and  _425
REMARK  158  A    between atoms: _425  and  _426
REMARK  159  A    between atoms: _425  and  _428
REMARK  160  A    between atoms: _428  and  _429
REMARK  161  A    between atoms: _429  and  _430
REMARK  162  A    between atoms: _430  and  _431
REMARK  163  A    between atoms: _440  and  _442
REMARK  164  A    between atoms: _442  and  _443
REMARK  165  A    between atoms: _442  and  _445
REMARK  166  A    between atoms: _445  and  _446
REMARK  167  A    between atoms: _449  and  _451
REMARK  168  A    between atoms: _451  and  _452
REMARK  169  A    between atoms: _454  and  _456
REMARK  170  A    between atoms: _456  and  _457
REMARK  171  A    between atoms: _456  and  _459
REMARK  172  A    between atoms: _459  and  _460
REMARK  173  A    between atoms: _466  and  _467
REMARK  174  A    between atoms: _472  and  _474
REMARK  175  A    between atoms: _474  and  _475
REMARK  176  A    between atoms: _477  and  _479
REMARK  177  A    between atoms: _479  and  _480
REMARK  178  A    between atoms: _479  and  _482
REMARK  179  A    between atoms: _482  and  _483
REMARK  180  A    between atoms: _489  and  _491
REMARK  181  A    between atoms: _491  and  _492
REMARK  182  A    between atoms: _491  and  _494
REMARK  183  A    between atoms: _494  and  _495
REMARK  184  A    between atoms: _500  and  _502
REMARK  185  A    between atoms: _502  and  _503
REMARK  186  A    between atoms: _502  and  _505
REMARK  187  A    between atoms: _505  and  _506
REMARK  188  A    between atoms: _506  and  _507
REMARK  189  A    between atoms: _507  and  _508
REMARK  190  A    between atoms: _508  and  ZN_790
REMARK  191  A    between atoms: _510  and  _512
REMARK  192  A    between atoms: _512  and  _513
REMARK  193  A    between atoms: _516  and  _518
REMARK  194  A    between atoms: _518  and  _519
REMARK  195  A    between atoms: _521  and  _523
REMARK  196  A    between atoms: _523  and  _524
REMARK  197  A    between atoms: _523  and  _526
REMARK  198  A    between atoms: _526  and  _527
REMARK  199  A    between atoms: _530  and  _532
REMARK  200  A    between atoms: _532  and  _533
REMARK  201  A    between atoms: _532  and  _535
REMARK  202  A    between atoms: _538  and  _540
REMARK  203  A    between atoms: _540  and  _541
REMARK  204  A    between atoms: _540  and  _543
REMARK  205  A    between atoms: _543  and  _544
REMARK  206  A    between atoms: _546  and  _548
REMARK  207  A    between atoms: _548  and  _549
REMARK  208  A    between atoms: _548  and  _551
REMARK  209  A    between atoms: _551  and  _552
REMARK  210  A    between atoms: _555  and  _557
REMARK  211  A    between atoms: _557  and  _558
REMARK  212  A    between atoms: _557  and  _560
REMARK  213  A    between atoms: _560  and  _561
REMARK  214  A    between atoms: _563  and  _565
REMARK  215  A    between atoms: _565  and  _566
REMARK  216  A    between atoms: _565  and  _568
REMARK  217  A    between atoms: _568  and  _569
REMARK  218  A    between atoms: _572  and  _574
REMARK  219  A    between atoms: _574  and  _575
REMARK  220  A    between atoms: _574  and  _577
REMARK  221  A    between atoms: _577  and  _578
REMARK  222  A    between atoms: _578  and  _579
REMARK  223  A    between atoms: _579  and  _580
REMARK  224  A    between atoms: _580  and  _581
REMARK  225  A    between atoms: _585  and  _587
REMARK  226  A    between atoms: _587  and  _588
REMARK  227  A    between atoms: _587  and  _590
REMARK  228  A    between atoms: _590  and  _591
REMARK  229  A    between atoms: _597  and  _599
REMARK  230  A    between atoms: _599  and  _600
REMARK  231  A    between atoms: _599  and  _602
REMARK  232  A    between atoms: _602  and  _603
REMARK  233  A    between atoms: _609  and  _611
REMARK  234  A    between atoms: _611  and  _612
REMARK  235  A    between atoms: _615  and  _617
REMARK  236  A    between atoms: _617  and  _618
REMARK  237  A    between atoms: _617  and  _620
REMARK  238  A    between atoms: _620  and  _621
REMARK  239  A    between atoms: _621  and  _622
REMARK  240  A    between atoms: _624  and  _626
REMARK  241  A    between atoms: _626  and  _627
REMARK  242  A    between atoms: _626  and  _629
REMARK  243  A    between atoms: _629  and  _630
REMARK  244  A    between atoms: _630  and  _631
REMARK  245  A    between atoms: _631  and  _632
REMARK  246  A    between atoms: _632  and  _633
REMARK  247  A    between atoms: _637  and  _639
REMARK  248  A    between atoms: _639  and  _640
REMARK  249  A    between atoms: _639  and  _642
REMARK  250  A    between atoms: _642  and  _643
REMARK  251  A    between atoms: _648  and  _649
REMARK  252  A    between atoms: _651  and  _653
REMARK  253  A    between atoms: _653  and  _654
REMARK  254  A    between atoms: _653  and  _656
REMARK  255  A    between atoms: _656  and  _657
REMARK  256  A    between atoms: _662  and  _664
REMARK  257  A    between atoms: _664  and  _665
REMARK  258  A    between atoms: _664  and  _667
REMARK  259  A    between atoms: _667  and  _668
REMARK  260  A    between atoms: _671  and  _673
REMARK  261  A    between atoms: _673  and  _674
REMARK  262  A    between atoms: _677  and  _679
REMARK  263  A    between atoms: _679  and  _680
REMARK  264  A    between atoms: _679  and  _682
REMARK  265  A    between atoms: _682  and  _683
REMARK  266  A    between atoms: _686  and  _688
REMARK  267  A    between atoms: _688  and  _689
REMARK  268  A    between atoms: _688  and  _691
REMARK  269  A    between atoms: _694  and  _696
REMARK  270  A    between atoms: _696  and  _697
REMARK  271  A    between atoms: _696  and  _699
REMARK  272  A    between atoms: _699  and  _700
REMARK  273  A    between atoms: _700  and  _701
REMARK  274  A    between atoms: _704  and  _706
REMARK  275  A    between atoms: _706  and  _707
REMARK  276  A    between atoms: _706  and  _709
REMARK  277  A    between atoms: _709  and  _710
REMARK  278  A    between atoms: _715  and  _716
REMARK  279  A    between atoms: _718  and  _720
REMARK  280  A    between atoms: _720  and  _721
REMARK  281  A    between atoms: _720  and  _723
REMARK  282  A    between atoms: _723  and  _724
REMARK  283  A    between atoms: _724  and  _725
REMARK  284  A    between atoms: _725  and  _726
REMARK  285  A    between atoms: _735  and  _737
REMARK  286  A    between atoms: _737  and  _738
REMARK  287  A    between atoms: _737  and  _740
REMARK  288  A    between atoms: _740  and  _741
REMARK  289  A    between atoms: _746  and  _747
REMARK  290  A    between atoms: _749  and  _751
REMARK  291  A    between atoms: _751  and  _752
REMARK  292  A    between atoms: _751  and  _754
REMARK  293  A    between atoms: _754  and  _755
REMARK  294  A    between atoms: _758  and  _760
REMARK  295  A    between atoms: _760  and  _761
REMARK  296  A    between atoms: _760  and  _763
REMARK  297  A    between atoms: _763  and  _764
REMARK  298  A    between atoms: _766  and  _768
REMARK  299  A    between atoms: _768  and  _769
REMARK  300  A    between atoms: _768  and  _771
REMARK  301  A    between atoms: _771  and  _772
REMARK  302  A    between atoms: _778  and  _780
REMARK  303  A    between atoms: _780  and  _781
REMARK  304  A    between atoms: _780  and  _783
REMARK  305  A    between atoms: _783  and  _784
REMARK  306  A    between atoms: _784  and  _785
REMARK                            x       y       z     vdW  Elec       q    Type
REMARK                         _______ _______ _______ _____ _____    ______ ____
ROOT
ATOM      1  C   ILE A   2      17.143   0.537   7.107  0.00  0.00    +0.241 C 
ATOM      2  N   LYS A   3      18.349   0.650   6.555  0.00  0.00    -0.297 N 
ATOM      3  H   LYS A   3      19.170   0.802   7.175  0.00  0.00    +0.150 HD
ATOM      4  O   ILE A   2      16.091   0.659   6.470  0.00  0.00    -0.273 OA
ENDROOT
BRANCH   2   5
ATOM      5  CA  LYS A   3      18.566   0.569   5.110  0.00  0.00    +0.149 C 
BRANCH   5   6
ATOM      6  C   LYS A   3      19.522  -0.599   4.862  0.00  0.00    +0.241 C 
ATOM      7  O   LYS A   3      20.709  -0.532   5.216  0.00  0.00    -0.273 OA
ATOM      8  N   GLN A   4      19.001  -1.680   4.286  0.00  0.00    -0.298 N 
ATOM      9  H   GLN A   4      17.996  -1.678   4.019  0.00  0.00    +0.150 HD
BRANCH   8  10
ATOM     10  CA  GLN A   4      19.808  -2.873   4.018  0.00  0.00    +0.137 C 
BRANCH  10  11
ATOM     11  C   GLN A   4      19.437  -3.436   2.659  0.00  0.00    +0.227 C 
ATOM     12  O   GLN A   4      18.248  -3.600   2.352  0.00  0.00    -0.286 OA
ENDBRANCH  10  11
BRANCH  10  13
ATOM     13  CB  GLN A   4      19.604  -3.930   5.108  0.00  0.00    +0.037 C 
BRANCH  13  14
ATOM     14  CG  GLN A   4      20.445  -5.199   4.935  0.00  0.00    +0.087 C 
BRANCH  14  15
ATOM     15  CD  GLN A   4      20.345  -6.165   6.110  0.00  0.00    +0.219 C 
ATOM     16  OE1 GLN A   4      19.993  -5.780   7.228  0.00  0.00    -0.275 OA
ATOM     17  NE2 GLN A   4      20.666  -7.430   5.862  0.00  0.00    -0.329 N 
ATOM     18 HE21 GLN A   4      20.625  -8.136   6.625  0.00  0.00    +0.145 HD
ATOM     19 HE22 GLN A   4      20.958  -7.714   4.905  0.00  0.00    +0.145 HD
ENDBRANCH  14  15
ENDBRANCH  13  14
ENDBRANCH  10  13
ENDBRANCH   8  10
ENDBRANCH   5   6
BRANCH   5  20
ATOM     20  CB  LYS A   3      19.139   1.882   4.568  0.00  0.00    +0.029 C 
BRANCH  20  21
ATOM     21  CG  LYS A   3      19.407   1.888   3.060  0.00  0.00    +0.000 C 
BRANCH  21  22
ATOM     22  CD  LYS A   3      19.500   3.301   2.490  0.00  0.00    -0.024 C 
BRANCH  22  23
ATOM     23  CE  LYS A   3      20.593   4.149   3.131  0.00  0.00    -0.086 C 
BRANCH  23  24
ATOM     24  NZ  LYS A   3      21.962   3.633   2.839  0.00  0.00    +0.380 N 
ATOM     25  HZ1 LYS A   3      22.667   4.245   3.298  0.00  0.00    -0.089 HD
ATOM     26  HZ2 LYS A   3      22.051   2.664   3.206  0.00  0.00    -0.089 HD
ATOM     27  HZ3 LYS A   3      22.119   3.632   1.811  0.00  0.00    -0.089 HD
ENDBRANCH  23  24
ENDBRANCH  22  23
ENDBRANCH  21  22
ENDBRANCH  20  21
ENDBRANCH   5  20
ENDBRANCH   2   5
BRANCH   1  28
ATOM     28  CA  ILE A   2      17.119   0.324   8.620  0.00  0.00    +0.148 C 
BRANCH  28  31
ATOM     29  C   ARG A   1      16.056   1.980  10.075  0.00  0.00    +0.238 C 
ATOM     30  O   ARG A   1      17.124   2.317  10.598  0.00  0.00    -0.274 OA
ATOM     31  N   ILE A   2      15.951   1.001   9.177  0.00  0.00    -0.297 N 
ATOM     32  H   ILE A   2      15.004   0.709   8.862  0.00  0.00    +0.150 HD
BRANCH  29  33
ATOM     33  CA  ARG A   1      14.775   2.735  10.370  0.00  0.00    +0.145 C 
BRANCH  33  34
ATOM     34  N   ARG A   1      14.793   3.348  11.708  0.00  0.00    -0.238 NA
ATOM     35  H   ARG A   1      15.705   3.637  12.116  0.00  0.00    +0.142 HD
ENDBRANCH  33  34
BRANCH  33  36
ATOM     36  CB  ARG A   1      14.680   3.803   9.278  0.00  0.00    +0.030 C 
BRANCH  36  37
ATOM     37  CG  ARG A   1      13.449   4.665   9.280  0.00  0.00    +0.045 C 
BRANCH  37  38
ATOM     38  CD  ARG A   1      13.601   5.799   8.285  0.00  0.00    +0.174 C 
BRANCH  38  39
ATOM     39  NE  ARG A   1      12.902   6.955   8.813  0.00  0.00    -0.265 N 
ATOM     40  HE  ARG A   1      12.364   6.828   9.694  0.00  0.00    +0.259 HD
ATOM     41  CZ  ARG A   1      12.894   8.159   8.262  0.00  0.00    +0.342 C 
ATOM     42  NH2 ARG A   1      12.231   9.135   8.863  0.00  0.00    -0.292 N 
ATOM     43 HH21 ARG A   1      11.727   8.950   9.754  0.00  0.00    +0.255 HD
ATOM     44 HH22 ARG A   1      12.214  10.087   8.444  0.00  0.00    +0.255 HD
ATOM     45  NH1 ARG A   1      13.536   8.391   7.124  0.00  0.00    -0.292 N 
ATOM     46 HH11 ARG A   1      13.521   9.342   6.703  0.00  0.00    +0.255 HD
ATOM     47 HH12 ARG A   1      14.054   7.622   6.653  0.00  0.00    +0.255 HD
ENDBRANCH  38  39
ENDBRANCH  37  38
ENDBRANCH  36  37
ENDBRANCH  33  36
ENDBRANCH  29  33
ENDBRANCH  28  31
BRANCH  28  48
ATOM     48  CB  ILE A   2      17.139  -1.175   9.020  0.00  0.00    +0.027 C 
ATOM     49  CG2 ILE A   2      18.023  -2.012   8.098  0.00  0.00    +0.002 C 
BRANCH  48  50
ATOM     50  CG1 ILE A   2      17.625  -1.311  10.467  0.00  0.00    +0.002 C 
ATOM     51  CD1 ILE A   2      17.371  -2.672  11.078  0.00  0.00    +0.000 C 
ENDBRANCH  48  50
ENDBRANCH  28  48
ENDBRANCH   1  28
TORSDOF 22
REMARK  Name = ../refined-set-2016/4ca7/4ca7_pocket.pdb
REMARK  306 active torsions:
REMARK  status: ('A' for Active; 'I' for Inactive)
REMARK    1  A    between atoms: _1  and  _3
REMARK    2  A    between atoms: _3  and  _4
REMARK    3  A    between atoms: _3  and  _6
REMARK    4  A    between atoms: _6  and  _7
REMARK    5  A    between atoms: _7  and  _8
REMARK    6  A    between atoms: _8  and  _9
REMARK    7  A    between atoms: _9  and  _10
REMARK    8  A    between atoms: _14  and  _16
REMARK    9  A    between atoms: _16  and  _17
REMARK   10  A    between atoms: _16  and  _19
REMARK   11  A    between atoms: _19  and  _20
REMARK   12  A    between atoms: _20  and  _21
REMARK   13  A    between atoms: _24  and  _26
REMARK   14  A    between atoms: _26  and  _27
REMARK   15  A    between atoms: _26  and  _29
REMARK   16  A    between atoms: _29  and  _30
REMARK   17  A    between atoms: _30  and  _31
REMARK   18  A    between atoms: _34  and  _36
REMARK   19  A    between atoms: _36  and  _37
REMARK   20  A    between atoms: _36  and  _39
REMARK   21  A    between atoms: _39  and  _40
REMARK   22  A    between atoms: _45  and  _47
REMARK   23  A    between atoms: _47  and  _48
REMARK   24  A    between atoms: _47  and  _50
REMARK   25  A    between atoms: _50  and  _51
REMARK   26  A    between atoms: _61  and  _63
REMARK   27  A    between atoms: _63  and  _64
REMARK   28  A    between atoms: _63  and  _66
REMARK   29  A    between atoms: _66  and  _67
REMARK   30  A    between atoms: _67  and  _68
REMARK   31  A    between atoms: _73  and  _75
REMARK   32  A    between atoms: _75  and  _76
REMARK   33  A    between atoms: _75  and  _78
REMARK   34  A    between atoms: _78  and  _79
REMARK   35  A    between atoms: _79  and  _80
REMARK   36  A    between atoms: _85  and  _87
REMARK   37  A    between atoms: _87  and  _88
REMARK   38  A    between atoms: _87  and  _90
REMARK   39  A    between atoms: _90  and  _91
REMARK   40  A    between atoms: _93  and  _95
REMARK   41  A    between atoms: _95  and  _96
REMARK   42  A    between atoms: _95  and  _98
REMARK   43  A    between atoms: _101  and  _103
REMARK   44  A    between atoms: _103  and  _104
REMARK   45  A    between atoms: _103  and  _106
REMARK   46  A    between atoms: _108  and  _110
REMARK   47  A    between atoms: _110  and  _111
REMARK   48  A    between atoms: _110  and  _113
REMARK   49  A    between atoms: _113  and  _114
REMARK   50  A    between atoms: _119  and  _121
REMARK   51  A    between atoms: _121  and  _122
REMARK   52  A    between atoms: _125  and  _127
REMARK   53  A    between atoms: _127  and  _128
REMARK   54  A    between atoms: _127  and  _130
REMARK   55  A    between atoms: _130  and  _131
REMARK   56  A    between atoms: _133  and  _135
REMARK   57  A    between atoms: _135  and  _136
REMARK   58  A    between atoms: _139  and  _141
REMARK   59  A    between atoms: _141  and  _142
REMARK   60  A    between atoms: _141  and  _144
REMARK   61  A    between atoms: _144  and  _145
REMARK   62  A    between atoms: _155  and  _157
REMARK   63  A    between atoms: _157  and  _158
REMARK   64  A    between atoms: _157  and  _160
REMARK   65  A    between atoms: _160  and  _161
REMARK   66  A    between atoms: _164  and  _166
REMARK   67  A    between atoms: _166  and  _167
REMARK   68  A    between atoms: _166  and  _169
REMARK   69  A    between atoms: _169  and  _170
REMARK   70  A    between atoms: _175  and  _176
REMARK   71  A    between atoms: _178  and  _180
REMARK   72  A    between atoms: _180  and  _181
REMARK   73  A    between atoms: _180  and  _183
REMARK   74  A    between atoms: _183  and  _184
REMARK   75  A    between atoms: _184  and  _185
REMARK   76  A    between atoms: _185  and  _186
REMARK   77  A    between atoms: _195  and  _197
REMARK   78  A    between atoms: _197  and  _198
REMARK   79  A    between atoms: _197  and  _200
REMARK   80  A    between atoms: _200  and  _201
REMARK   81  A    between atoms: _204  and  _206
REMARK   82  A    between atoms: _206  and  _207
REMARK   83  A    between atoms: _206  and  _209
REMARK   84  A    between atoms: _209  and  _210
REMARK   85  A    between atoms: _210  and  _211
REMARK   86  A    between atoms: _211  and  _212
REMARK   87  A    between atoms: _212  and  _213
REMARK   88  A    between atoms: _217  and  _219
REMARK   89  A    between atoms: _219  and  _220
REMARK   90  A    between atoms: _219  and  _222
REMARK   91  A    between atoms: _222  and  _223
REMARK   92  A    between atoms: _223  and  _224
REMARK   93  A    between atoms: _229  and  _231
REMARK   94  A    between atoms: _231  and  _232
REMARK   95  A    between atoms: _231  and  _234
REMARK   96  A    between atoms: _234  and  _235
REMARK   97  A    between atoms: _235  and  _236
REMARK   98  A    between atoms: _236  and  _237
REMARK   99  A    between atoms: _246  and  _248
REMARK  100  A    between atoms: _248  and  _249
REMARK  101  A    between atoms: _248  and  _251
REMARK  102  A    between atoms: _251  and  _252
REMARK  103  A    between atoms: _252  and  _253
REMARK  104  A    between atoms: _258  and  _260
REMARK  105  A    between atoms: _260  and  _261
REMARK  106  A    between atoms: _260  and  _263
REMARK  107  A    between atoms: _263  and  _264
REMARK  108  A    between atoms: _267  and  _269
REMARK  109  A    between atoms: _269  and  _270
REMARK  110  A    between atoms: _269  and  _272
REMARK  111  A    between atoms: _272  and  _273
REMARK  112  A    between atoms: _273  and  _274
REMARK  113  A    between atoms: _279  and  _281
REMARK  114  A    between atoms: _281  and  _282
REMARK  115  A    between atoms: _281  and  _284
REMARK  116  A    between atoms: _284  and  _285
REMARK  117  A    between atoms: _288  and  _290
REMARK  118  A    between atoms: _290  and  _291
REMARK  119  A    between atoms: _290  and  _293
REMARK  120  A    between atoms: _293  and  _294
REMARK  121  A    between atoms: _300  and  _302
REMARK  122  A    between atoms: _302  and  _303
REMARK  123  A    between atoms: _302  and  _305
REMARK  124  A    between atoms: _305  and  _306
REMARK  125  A    between atoms: _309  and  _311
REMARK  126  A    between atoms: _311  and  _312
REMARK  127  A    between atoms: _311  and  _314
REMARK  128  A    between atoms: _317  and  _319
REMARK  129  A    between atoms: _319  and  _320
REMARK  130  A    between atoms: _319  and  _322
REMARK  131  A    between atoms: _322  and  _323
REMARK  132  A    between atoms: _328  and  _330
REMARK  133  A    between atoms: _341  and  _344
REMARK  134  A    between atoms: _344  and  _345
REMARK  135  A    between atoms: _345  and  _346
REMARK  136  A    between atoms: _351  and  _354
REMARK  137  A    between atoms: _354  and  _355
REMARK  138  A    between atoms: _365  and  _366
REMARK  139  A    between atoms: _374  and  _376
REMARK  140  A    between atoms: _376  and  _377
REMARK  141  A    between atoms: _376  and  _379
REMARK  142  A    between atoms: _379  and  _380
REMARK  143  A    between atoms: _383  and  _385
REMARK  144  A    between atoms: _385  and  _386
REMARK  145  A    between atoms: _385  and  _388
REMARK  146  A    between atoms: _388  and  _389
REMARK  147  A    between atoms: _394  and  _395
REMARK  148  A    between atoms: _397  and  _399
REMARK  149  A    between atoms: _399  and  _400
REMARK  150  A    between atoms: _399  and  _402
REMARK  151  A    between atoms: _402  and  _403
REMARK  152  A    between atoms: _409  and  _411
REMARK  153  A    between atoms: _411  and  _412
REMARK  154  A    between atoms: _411  and  _414
REMARK  155  A    between atoms: _414  and  _415
REMARK  156  A    between atoms: _420  and  _421
REMARK  157  A    between atoms: _423  and  _425
REMARK  158  A    between atoms: _425  and  _426
REMARK  159  A    between atoms: _425  and  _428
REMARK  160  A    between atoms: _428  and  _429
REMARK  161  A    between atoms: _429  and  _430
REMARK  162  A    between atoms: _430  and  _431
REMARK  163  A    between atoms: _440  and  _442
REMARK  164  A    between atoms: _442  and  _443
REMARK  165  A    between atoms: _442  and  _445
REMARK  166  A    between atoms: _445  and  _446
REMARK  167  A    between atoms: _449  and  _451
REMARK  168  A    between atoms: _451  and  _452
REMARK  169  A    between atoms: _454  and  _456
REMARK  170  A    between atoms: _456  and  _457
REMARK  171  A    between atoms: _456  and  _459
REMARK  172  A    between atoms: _459  and  _460
REMARK  173  A    between atoms: _466  and  _467
REMARK  174  A    between atoms: _472  and  _474
REMARK  175  A    between atoms: _474  and  _475
REMARK  176  A    between atoms: _477  and  _479
REMARK  177  A    between atoms: _479  and  _480
REMARK  178  A    between atoms: _479  and  _482
REMARK  179  A    between atoms: _482  and  _483
REMARK  180  A    between atoms: _489  and  _491
REMARK  181  A    between atoms: _491  and  _492
REMARK  182  A    between atoms: _491  and  _494
REMARK  183  A    between atoms: _494  and  _495
REMARK  184  A    between atoms: _500  and  _502
REMARK  185  A    between atoms: _502  and  _503
REMARK  186  A    between atoms: _502  and  _505
REMARK  187  A    between atoms: _505  and  _506
REMARK  188  A    between atoms: _506  and  _507
REMARK  189  A    between atoms: _507  and  _508
REMARK  190  A    between atoms: _508  and  ZN_790
REMARK  191  A    between atoms: _510  and  _512
REMARK  192  A    between atoms: _512  and  _513
REMARK  193  A    between atoms: _516  and  _518
REMARK  194  A    between atoms: _518  and  _519
REMARK  195  A    between atoms: _521  and  _523
REMARK  196  A    between atoms: _523  and  _524
REMARK  197  A    between atoms: _523  and  _526
REMARK  198  A    between atoms: _526  and  _527
REMARK  199  A    between atoms: _530  and  _532
REMARK  200  A    between atoms: _532  and  _533
REMARK  201  A    between atoms: _532  and  _535
REMARK  202  A    between atoms: _538  and  _540
REMARK  203  A    between atoms: _540  and  _541
REMARK  204  A    between atoms: _540  and  _543
REMARK  205  A    between atoms: _543  and  _544
REMARK  206  A    between atoms: _546  and  _548
REMARK  207  A    between atoms: _548  and  _549
REMARK  208  A    between atoms: _548  and  _551
REMARK  209  A    between atoms: _551  and  _552
REMARK  210  A    between atoms: _555  and  _557
REMARK  211  A    between atoms: _557  and  _558
REMARK  212  A    between atoms: _557  and  _560
REMARK  213  A    between atoms: _560  and  _561
REMARK  214  A    between atoms: _563  and  _565
REMARK  215  A    between atoms: _565  and  _566
REMARK  216  A    between atoms: _565  and  _568
REMARK  217  A    between atoms: _568  and  _569
REMARK  218  A    between atoms: _572  and  _574
REMARK  219  A    between atoms: _574  and  _575
REMARK  220  A    between atoms: _574  and  _577
REMARK  221  A    between atoms: _577  and  _578
REMARK  222  A    between atoms: _578  and  _579
REMARK  223  A    between atoms: _579  and  _580
REMARK  224  A    between atoms: _580  and  _581
REMARK  225  A    between atoms: _585  and  _587
REMARK  226  A    between atoms: _587  and  _588
REMARK  227  A    between atoms: _587  and  _590
REMARK  228  A    between atoms: _590  and  _591
REMARK  229  A    between atoms: _597  and  _599
REMARK  230  A    between atoms: _599  and  _600
REMARK  231  A    between atoms: _599  and  _602
REMARK  232  A    between atoms: _602  and  _603
REMARK  233  A    between atoms: _609  and  _611
REMARK  234  A    between atoms: _611  and  _612
REMARK  235  A    between atoms: _615  and  _617
REMARK  236  A    between atoms: _617  and  _618
REMARK  237  A    between atoms: _617  and  _620
REMARK  238  A    between atoms: _620  and  _621
REMARK  239  A    between atoms: _621  and  _622
REMARK  240  A    between atoms: _624  and  _626
REMARK  241  A    between atoms: _626  and  _627
REMARK  242  A    between atoms: _626  and  _629
REMARK  243  A    between atoms: _629  and  _630
REMARK  244  A    between atoms: _630  and  _631
REMARK  245  A    between atoms: _631  and  _632
REMARK  246  A    between atoms: _632  and  _633
REMARK  247  A    between atoms: _637  and  _639
REMARK  248  A    between atoms: _639  and  _640
REMARK  249  A    between atoms: _639  and  _642
REMARK  250  A    between atoms: _642  and  _643
REMARK  251  A    between atoms: _648  and  _649
REMARK  252  A    between atoms: _651  and  _653
REMARK  253  A    between atoms: _653  and  _654
REMARK  254  A    between atoms: _653  and  _656
REMARK  255  A    between atoms: _656  and  _657
REMARK  256  A    between atoms: _662  and  _664
REMARK  257  A    between atoms: _664  and  _665
REMARK  258  A    between atoms: _664  and  _667
REMARK  259  A    between atoms: _667  and  _668
REMARK  260  A    between atoms: _671  and  _673
REMARK  261  A    between atoms: _673  and  _674
REMARK  262  A    between atoms: _677  and  _679
REMARK  263  A    between atoms: _679  and  _680
REMARK  264  A    between atoms: _679  and  _682
REMARK  265  A    between atoms: _682  and  _683
REMARK  266  A    between atoms: _686  and  _688
REMARK  267  A    between atoms: _688  and  _689
REMARK  268  A    between atoms: _688  and  _691
REMARK  269  A    between atoms: _694  and  _696
REMARK  270  A    between atoms: _696  and  _697
REMARK  271  A    between atoms: _696  and  _699
REMARK  272  A    between atoms: _699  and  _700
REMARK  273  A    between atoms: _700  and  _701
REMARK  274  A    between atoms: _704  and  _706
REMARK  275  A    between atoms: _706  and  _707
REMARK  276  A    between atoms: _706  and  _709
REMARK  277  A    between atoms: _709  and  _710
REMARK  278  A    between atoms: _715  and  _716
REMARK  279  A    between atoms: _718  and  _720
REMARK  280  A    between atoms: _720  and  _721
REMARK  281  A    between atoms: _720  and  _723
REMARK  282  A    between atoms: _723  and  _724
REMARK  283  A    between atoms: _724  and  _725
REMARK  284  A    between atoms: _725  and  _726
REMARK  285  A    between atoms: _735  and  _737
REMARK  286  A    between atoms: _737  and  _738
REMARK  287  A    between atoms: _737  and  _740
REMARK  288  A    between atoms: _740  and  _741
REMARK  289  A    between atoms: _746  and  _747
REMARK  290  A    between atoms: _749  and  _751
REMARK  291  A    between atoms: _751  and  _752
REMARK  292  A    between atoms: _751  and  _754
REMARK  293  A    between atoms: _754  and  _755
REMARK  294  A    between atoms: _758  and  _760
REMARK  295  A    between atoms: _760  and  _761
REMARK  296  A    between atoms: _760  and  _763
REMARK  297  A    between atoms: _763  and  _764
REMARK  298  A    between atoms: _766  and  _768
REMARK  299  A    between atoms: _768  and  _769
REMARK  300  A    between atoms: _768  and  _771
REMARK  301  A    between atoms: _771  and  _772
REMARK  302  A    between atoms: _778  and  _780
REMARK  303  A    between atoms: _780  and  _781
REMARK  304  A    between atoms: _780  and  _783
REMARK  305  A    between atoms: _783  and  _784
REMARK  306  A    between atoms: _784  and  _785
REMARK                            x       y       z     vdW  Elec       q    Type
REMARK                         _______ _______ _______ _____ _____    ______ ____
ROOT
ATOM      1  NE  ARG A   1      23.848  -9.625  -0.421  0.00  0.00    -0.265 N 
ATOM      2  CZ  ARG A   1      24.590 -10.428   0.335  0.00  0.00    +0.342 C 
ATOM      3  NH2 ARG A   1      25.254  -9.936   1.372  0.00  0.00    -0.292 N 
ATOM      4 HH21 ARG A   1      25.834 -10.564   1.963  0.00  0.00    +0.255 HD
ATOM      5 HH22 ARG A   1      25.194  -8.922   1.594  0.00  0.00    +0.255 HD
ATOM      6  NH1 ARG A   1      24.675 -11.725   0.060  0.00  0.00    -0.292 N 
ATOM      7 HH11 ARG A   1      25.258 -12.346   0.657  0.00  0.00    +0.255 HD
ATOM      8 HH12 ARG A   1      24.159 -12.119  -0.752  0.00  0.00    +0.255 HD
ATOM      9  HE  ARG A   1      23.813  -8.617  -0.168  0.00  0.00    +0.259 HD
ENDROOT
BRANCH   1  10
ATOM     10  CD  ARG A   1      23.077 -10.063  -1.586  0.00  0.00    +0.174 C 
BRANCH  10  11
ATOM     11  CG  ARG A   1      21.578 -10.115  -1.300  0.00  0.00    +0.045 C 
BRANCH  11  12
ATOM     12  CB  ARG A   1      21.196 -11.190  -0.285  0.00  0.00    +0.029 C 
BRANCH  12  13
ATOM     13  CA  ARG A   1      19.806 -10.979   0.339  0.00  0.00    +0.133 C 
BRANCH  13  14
ATOM     14  N   ARG A   1      19.790  -9.777   1.172  0.00  0.00    -0.239 NA
ATOM     15  H   ARG A   1      20.412  -9.738   2.005  0.00  0.00    +0.142 HD
ENDBRANCH  13  14
BRANCH  13  16
ATOM     16  C   ARG A   1      19.379 -12.170   1.195  0.00  0.00    +0.224 C 
ATOM     17  O   ARG A   1      19.473 -12.114   2.427  0.00  0.00    -0.287 OA
ENDBRANCH  13  16
ENDBRANCH  12  13
ENDBRANCH  11  12
ENDBRANCH  10  11
ENDBRANCH   1  10
TORSDOF 6
REMARK  Name = ../refined-set-2016/4ca7/4ca7_pocket.pdb
REMARK  306 active torsions:
REMARK  status: ('A' for Active; 'I' for Inactive)
REMARK    1  A    between atoms: _1  and  _3
REMARK    2  A    between atoms: _3  and  _4
REMARK    3  A    between atoms: _3  and  _6
REMARK    4  A    between atoms: _6  and  _7
REMARK    5  A    between atoms: _7  and  _8
REMARK    6  A    between atoms: _8  and  _9
REMARK    7  A    between atoms: _9  and  _10
REMARK    8  A    between atoms: _14  and  _16
REMARK    9  A    between atoms: _16  and  _17
REMARK   10  A    between atoms: _16  and  _19
REMARK   11  A    between atoms: _19  and  _20
REMARK   12  A    between atoms: _20  and  _21
REMARK   13  A    between atoms: _24  and  _26
REMARK   14  A    between atoms: _26  and  _27
REMARK   15  A    between atoms: _26  and  _29
REMARK   16  A    between atoms: _29  and  _30
REMARK   17  A    between atoms: _30  and  _31
REMARK   18  A    between atoms: _34  and  _36
REMARK   19  A    between atoms: _36  and  _37
REMARK   20  A    between atoms: _36  and  _39
REMARK   21  A    between atoms: _39  and  _40
REMARK   22  A    between atoms: _45  and  _47
REMARK   23  A    between atoms: _47  and  _48
REMARK   24  A    between atoms: _47  and  _50
REMARK   25  A    between atoms: _50  and  _51
REMARK   26  A    between atoms: _61  and  _63
REMARK   27  A    between atoms: _63  and  _64
REMARK   28  A    between atoms: _63  and  _66
REMARK   29  A    between atoms: _66  and  _67
REMARK   30  A    between atoms: _67  and  _68
REMARK   31  A    between atoms: _73  and  _75
REMARK   32  A    between atoms: _75  and  _76
REMARK   33  A    between atoms: _75  and  _78
REMARK   34  A    between atoms: _78  and  _79
REMARK   35  A    between atoms: _79  and  _80
REMARK   36  A    between atoms: _85  and  _87
REMARK   37  A    between atoms: _87  and  _88
REMARK   38  A    between atoms: _87  and  _90
REMARK   39  A    between atoms: _90  and  _91
REMARK   40  A    between atoms: _93  and  _95
REMARK   41  A    between atoms: _95  and  _96
REMARK   42  A    between atoms: _95  and  _98
REMARK   43  A    between atoms: _101  and  _103
REMARK   44  A    between atoms: _103  and  _104
REMARK   45  A    between atoms: _103  and  _106
REMARK   46  A    between atoms: _108  and  _110
REMARK   47  A    between atoms: _110  and  _111
REMARK   48  A    between atoms: _110  and  _113
REMARK   49  A    between atoms: _113  and  _114
REMARK   50  A    between atoms: _119  and  _121
REMARK   51  A    between atoms: _121  and  _122
REMARK   52  A    between atoms: _125  and  _127
REMARK   53  A    between atoms: _127  and  _128
REMARK   54  A    between atoms: _127  and  _130
REMARK   55  A    between atoms: _130  and  _131
REMARK   56  A    between atoms: _133  and  _135
REMARK   57  A    between atoms: _135  and  _136
REMARK   58  A    between atoms: _139  and  _141
REMARK   59  A    between atoms: _141  and  _142
REMARK   60  A    between atoms: _141  and  _144
REMARK   61  A    between atoms: _144  and  _145
REMARK   62  A    between atoms: _155  and  _157
REMARK   63  A    between atoms: _157  and  _158
REMARK   64  A    between atoms: _157  and  _160
REMARK   65  A    between atoms: _160  and  _161
REMARK   66  A    between atoms: _164  and  _166
REMARK   67  A    between atoms: _166  and  _167
REMARK   68  A    between atoms: _166  and  _169
REMARK   69  A    between atoms: _169  and  _170
REMARK   70  A    between atoms: _175  and  _176
REMARK   71  A    between atoms: _178  and  _180
REMARK   72  A    between atoms: _180  and  _181
REMARK   73  A    between atoms: _180  and  _183
REMARK   74  A    between atoms: _183  and  _184
REMARK   75  A    between atoms: _184  and  _185
REMARK   76  A    between atoms: _185  and  _186
REMARK   77  A    between atoms: _195  and  _197
REMARK   78  A    between atoms: _197  and  _198
REMARK   79  A    between atoms: _197  and  _200
REMARK   80  A    between atoms: _200  and  _201
REMARK   81  A    between atoms: _204  and  _206
REMARK   82  A    between atoms: _206  and  _207
REMARK   83  A    between atoms: _206  and  _209
REMARK   84  A    between atoms: _209  and  _210
REMARK   85  A    between atoms: _210  and  _211
REMARK   86  A    between atoms: _211  and  _212
REMARK   87  A    between atoms: _212  and  _213
REMARK   88  A    between atoms: _217  and  _219
REMARK   89  A    between atoms: _219  and  _220
REMARK   90  A    between atoms: _219  and  _222
REMARK   91  A    between atoms: _222  and  _223
REMARK   92  A    between atoms: _223  and  _224
REMARK   93  A    between atoms: _229  and  _231
REMARK   94  A    between atoms: _231  and  _232
REMARK   95  A    between atoms: _231  and  _234
REMARK   96  A    between atoms: _234  and  _235
REMARK   97  A    between atoms: _235  and  _236
REMARK   98  A    between atoms: _236  and  _237
REMARK   99  A    between atoms: _246  and  _248
REMARK  100  A    between atoms: _248  and  _249
REMARK  101  A    between atoms: _248  and  _251
REMARK  102  A    between atoms: _251  and  _252
REMARK  103  A    between atoms: _252  and  _253
REMARK  104  A    between atoms: _258  and  _260
REMARK  105  A    between atoms: _260  and  _261
REMARK  106  A    between atoms: _260  and  _263
REMARK  107  A    between atoms: _263  and  _264
REMARK  108  A    between atoms: _267  and  _269
REMARK  109  A    between atoms: _269  and  _270
REMARK  110  A    between atoms: _269  and  _272
REMARK  111  A    between atoms: _272  and  _273
REMARK  112  A    between atoms: _273  and  _274
REMARK  113  A    between atoms: _279  and  _281
REMARK  114  A    between atoms: _281  and  _282
REMARK  115  A    between atoms: _281  and  _284
REMARK  116  A    between atoms: _284  and  _285
REMARK  117  A    between atoms: _288  and  _290
REMARK  118  A    between atoms: _290  and  _291
REMARK  119  A    between atoms: _290  and  _293
REMARK  120  A    between atoms: _293  and  _294
REMARK  121  A    between atoms: _300  and  _302
REMARK  122  A    between atoms: _302  and  _303
REMARK  123  A    between atoms: _302  and  _305
REMARK  124  A    between atoms: _305  and  _306
REMARK  125  A    between atoms: _309  and  _311
REMARK  126  A    between atoms: _311  and  _312
REMARK  127  A    between atoms: _311  and  _314
REMARK  128  A    between atoms: _317  and  _319
REMARK  129  A    between atoms: _319  and  _320
REMARK  130  A    between atoms: _319  and  _322
REMARK  131  A    between atoms: _322  and  _323
REMARK  132  A    between atoms: _328  and  _330
REMARK  133  A    between atoms: _341  and  _344
REMARK  134  A    between atoms: _344  and  _345
REMARK  135  A    between atoms: _345  and  _346
REMARK  136  A    between atoms: _351  and  _354
REMARK  137  A    between atoms: _354  and  _355
REMARK  138  A    between atoms: _365  and  _366
REMARK  139  A    between atoms: _374  and  _376
REMARK  140  A    between atoms: _376  and  _377
REMARK  141  A    between atoms: _376  and  _379
REMARK  142  A    between atoms: _379  and  _380
REMARK  143  A    between atoms: _383  and  _385
REMARK  144  A    between atoms: _385  and  _386
REMARK  145  A    between atoms: _385  and  _388
REMARK  146  A    between atoms: _388  and  _389
REMARK  147  A    between atoms: _394  and  _395
REMARK  148  A    between atoms: _397  and  _399
REMARK  149  A    between atoms: _399  and  _400
REMARK  150  A    between atoms: _399  and  _402
REMARK  151  A    between atoms: _402  and  _403
REMARK  152  A    between atoms: _409  and  _411
REMARK  153  A    between atoms: _411  and  _412
REMARK  154  A    between atoms: _411  and  _414
REMARK  155  A    between atoms: _414  and  _415
REMARK  156  A    between atoms: _420  and  _421
REMARK  157  A    between atoms: _423  and  _425
REMARK  158  A    between atoms: _425  and  _426
REMARK  159  A    between atoms: _425  and  _428
REMARK  160  A    between atoms: _428  and  _429
REMARK  161  A    between atoms: _429  and  _430
REMARK  162  A    between atoms: _430  and  _431
REMARK  163  A    between atoms: _440  and  _442
REMARK  164  A    between atoms: _442  and  _443
REMARK  165  A    between atoms: _442  and  _445
REMARK  166  A    between atoms: _445  and  _446
REMARK  167  A    between atoms: _449  and  _451
REMARK  168  A    between atoms: _451  and  _452
REMARK  169  A    between atoms: _454  and  _456
REMARK  170  A    between atoms: _456  and  _457
REMARK  171  A    between atoms: _456  and  _459
REMARK  172  A    between atoms: _459  and  _460
REMARK  173  A    between atoms: _466  and  _467
REMARK  174  A    between atoms: _472  and  _474
REMARK  175  A    between atoms: _474  and  _475
REMARK  176  A    between atoms: _477  and  _479
REMARK  177  A    between atoms: _479  and  _480
REMARK  178  A    between atoms: _479  and  _482
REMARK  179  A    between atoms: _482  and  _483
REMARK  180  A    between atoms: _489  and  _491
REMARK  181  A    between atoms: _491  and  _492
REMARK  182  A    between atoms: _491  and  _494
REMARK  183  A    between atoms: _494  and  _495
REMARK  184  A    between atoms: _500  and  _502
REMARK  185  A    between atoms: _502  and  _503
REMARK  186  A    between atoms: _502  and  _505
REMARK  187  A    between atoms: _505  and  _506
REMARK  188  A    between atoms: _506  and  _507
REMARK  189  A    between atoms: _507  and  _508
REMARK  190  A    between atoms: _508  and  ZN_790
REMARK  191  A    between atoms: _510  and  _512
REMARK  192  A    between atoms: _512  and  _513
REMARK  193  A    between atoms: _516  and  _518
REMARK  194  A    between atoms: _518  and  _519
REMARK  195  A    between atoms: _521  and  _523
REMARK  196  A    between atoms: _523  and  _524
REMARK  197  A    between atoms: _523  and  _526
REMARK  198  A    between atoms: _526  and  _527
REMARK  199  A    between atoms: _530  and  _532
REMARK  200  A    between atoms: _532  and  _533
REMARK  201  A    between atoms: _532  and  _535
REMARK  202  A    between atoms: _538  and  _540
REMARK  203  A    between atoms: _540  and  _541
REMARK  204  A    between atoms: _540  and  _543
REMARK  205  A    between atoms: _543  and  _544
REMARK  206  A    between atoms: _546  and  _548
REMARK  207  A    between atoms: _548  and  _549
REMARK  208  A    between atoms: _548  and  _551
REMARK  209  A    between atoms: _551  and  _552
REMARK  210  A    between atoms: _555  and  _557
REMARK  211  A    between atoms: _557  and  _558
REMARK  212  A    between atoms: _557  and  _560
REMARK  213  A    between atoms: _560  and  _561
REMARK  214  A    between atoms: _563  and  _565
REMARK  215  A    between atoms: _565  and  _566
REMARK  216  A    between atoms: _565  and  _568
REMARK  217  A    between atoms: _568  and  _569
REMARK  218  A    between atoms: _572  and  _574
REMARK  219  A    between atoms: _574  and  _575
REMARK  220  A    between atoms: _574  and  _577
REMARK  221  A    between atoms: _577  and  _578
REMARK  222  A    between atoms: _578  and  _579
REMARK  223  A    between atoms: _579  and  _580
REMARK  224  A    between atoms: _580  and  _581
REMARK  225  A    between atoms: _585  and  _587
REMARK  226  A    between atoms: _587  and  _588
REMARK  227  A    between atoms: _587  and  _590
REMARK  228  A    between atoms: _590  and  _591
REMARK  229  A    between atoms: _597  and  _599
REMARK  230  A    between atoms: _599  and  _600
REMARK  231  A    between atoms: _599  and  _602
REMARK  232  A    between atoms: _602  and  _603
REMARK  233  A    between atoms: _609  and  _611
REMARK  234  A    between atoms: _611  and  _612
REMARK  235  A    between atoms: _615  and  _617
REMARK  236  A    between atoms: _617  and  _618
REMARK  237  A    between atoms: _617  and  _620
REMARK  238  A    between atoms: _620  and  _621
REMARK  239  A    between atoms: _621  and  _622
REMARK  240  A    between atoms: _624  and  _626
REMARK  241  A    between atoms: _626  and  _627
REMARK  242  A    between atoms: _626  and  _629
REMARK  243  A    between atoms: _629  and  _630
REMARK  244  A    between atoms: _630  and  _631
REMARK  245  A    between atoms: _631  and  _632
REMARK  246  A    between atoms: _632  and  _633
REMARK  247  A    between atoms: _637  and  _639
REMARK  248  A    between atoms: _639  and  _640
REMARK  249  A    between atoms: _639  and  _642
REMARK  250  A    between atoms: _642  and  _643
REMARK  251  A    between atoms: _648  and  _649
REMARK  252  A    between atoms: _651  and  _653
REMARK  253  A    between atoms: _653  and  _654
REMARK  254  A    between atoms: _653  and  _656
REMARK  255  A    between atoms: _656  and  _657
REMARK  256  A    between atoms: _662  and  _664
REMARK  257  A    between atoms: _664  and  _665
REMARK  258  A    between atoms: _664  and  _667
REMARK  259  A    between atoms: _667  and  _668
REMARK  260  A    between atoms: _671  and  _673
REMARK  261  A    between atoms: _673  and  _674
REMARK  262  A    between atoms: _677  and  _679
REMARK  263  A    between atoms: _679  and  _680
REMARK  264  A    between atoms: _679  and  _682
REMARK  265  A    between atoms: _682  and  _683
REMARK  266  A    between atoms: _686  and  _688
REMARK  267  A    between atoms: _688  and  _689
REMARK  268  A    between atoms: _688  and  _691
REMARK  269  A    between atoms: _694  and  _696
REMARK  270  A    between atoms: _696  and  _697
REMARK  271  A    between atoms: _696  and  _699
REMARK  272  A    between atoms: _699  and  _700
REMARK  273  A    between atoms: _700  and  _701
REMARK  274  A    between atoms: _704  and  _706
REMARK  275  A    between atoms: _706  and  _707
REMARK  276  A    between atoms: _706  and  _709
REMARK  277  A    between atoms: _709  and  _710
REMARK  278  A    between atoms: _715  and  _716
REMARK  279  A    between atoms: _718  and  _720
REMARK  280  A    between atoms: _720  and  _721
REMARK  281  A    between atoms: _720  and  _723
REMARK  282  A    between atoms: _723  and  _724
REMARK  283  A    between atoms: _724  and  _725
REMARK  284  A    between atoms: _725  and  _726
REMARK  285  A    between atoms: _735  and  _737
REMARK  286  A    between atoms: _737  and  _738
REMARK  287  A    between atoms: _737  and  _740
REMARK  288  A    between atoms: _740  and  _741
REMARK  289  A    between atoms: _746  and  _747
REMARK  290  A    between atoms: _749  and  _751
REMARK  291  A    between atoms: _751  and  _752
REMARK  292  A    between atoms: _751  and  _754
REMARK  293  A    between atoms: _754  and  _755
REMARK  294  A    between atoms: _758  and  _760
REMARK  295  A    between atoms: _760  and  _761
REMARK  296  A    between atoms: _760  and  _763
REMARK  297  A    between atoms: _763  and  _764
REMARK  298  A    between atoms: _766  and  _768
REMARK  299  A    between atoms: _768  and  _769
REMARK  300  A    between atoms: _768  and  _771
REMARK  301  A    between atoms: _771  and  _772
REMARK  302  A    between atoms: _778  and  _780
REMARK  303  A    between atoms: _780  and  _781
REMARK  304  A    between atoms: _780  and  _783
REMARK  305  A    between atoms: _783  and  _784
REMARK  306  A    between atoms: _784  and  _785
REMARK                            x       y       z     vdW  Elec       q    Type
REMARK                         _______ _______ _______ _____ _____    ______ ____
ROOT
ATOM      1  C   UNK A   9      22.951  -7.280  14.039  0.00  0.00    +0.000 C 
ATOM      2  C   UNK A   9      22.324  -5.883  13.927  0.00  0.00    +0.000 C 
ATOM      3  O   UNK A   9      22.383  -5.098  14.864  0.00  0.00    +0.000 OA
ATOM      4  N   GLU A  10      21.717  -5.585  12.783  0.00  0.00    +0.000 N 
ATOM      5  CA  GLU A  10      21.106  -4.274  12.559  0.00  0.00    +0.000 C 
ATOM      6  C   GLU A  10      19.947  -3.996  13.501  0.00  0.00    +0.000 C 
ATOM      7  O   GLU A  10      19.785  -2.863  13.958  0.00  0.00    +0.000 OA
ATOM      8  N   LEU A  11      19.145  -5.026  13.785  0.00  0.00    +0.000 N 
ATOM      9  CA  LEU A  11      18.006  -4.875  14.696  0.00  0.00    +0.000 C 
ATOM     10  C   LEU A  11      18.463  -4.673  16.144  0.00  0.00    +0.000 C 
ATOM     11  O   LEU A  11      17.709  -4.139  16.961  0.00  0.00    +0.000 OA
ATOM     12  N   GLY A  12      19.689  -5.104  16.451  0.00  0.00    +0.000 N 
ATOM     13  CA  GLY A  12      20.327  -4.819  17.748  0.00  0.00    +0.000 C 
ATOM     14  C   GLY A  12      20.537  -3.325  17.994  0.00  0.00    +0.000 C 
ATOM     15  O   GLY A  12      20.312  -2.830  19.106  0.00  0.00    +0.000 OA
ATOM     16  N   UNK A  13      20.964  -2.608  16.953  0.00  0.00    +0.000 N 
ATOM     17  C   UNK A  13      21.061  -1.150  16.993  0.00  0.00    +0.000 C 
ATOM     18  C   UNK A  13      21.617  -0.605  15.678  0.00  0.00    +0.000 C 
ATOM     19  C   UNK A  13      23.065  -0.912  15.445  0.00  0.00    +0.000 A 
ATOM     20  N   UNK A  13      24.049  -0.632  16.371  0.00  0.00    +0.000 NA
ATOM     21  C   UNK A  13      25.224  -0.984  15.880  0.00  0.00    +0.000 A 
ATOM     22  N   UNK A  13      25.038  -1.470  14.667  0.00  0.00    +0.000 N 
ATOM     23 ZN   UNK A   6      26.653  -2.326  13.616  0.00  0.00    +0.000 Zn
ATOM     24  N   UNK A   6      26.317  -4.362  13.625  0.00  0.00    +0.000 N 
ATOM     25  C   UNK A   6      26.875  -5.219  14.459  0.00  0.00    +0.000 A 
ATOM     26  N   UNK A   6      26.205  -6.357  14.398  0.00  0.00    +0.000 NA
ATOM     27  C   UNK A   6      25.194  -6.243  13.470  0.00  0.00    +0.000 A 
ATOM     28  C   UNK A   6      25.258  -4.975  12.998  0.00  0.00    +0.000 A 
ATOM     29  C   UNK A  13      23.698  -1.436  14.371  0.00  0.00    +0.000 A 
ATOM     30  H   UNK A  13      21.238  -3.105  16.081  0.00  0.00    +0.000 HD
ATOM     31  H   GLY A  12      20.214  -5.662  15.748  0.00  0.00    +0.000 HD
ATOM     32  H   LEU A  11      19.332  -5.953  13.352  0.00  0.00    +0.000 HD
ATOM     33  H   GLU A  10      21.675  -6.300  12.029  0.00  0.00    +0.000 HD
ATOM     34  C   UNK A   9      24.233  -7.357  13.189  0.00  0.00    +0.000 C 
ENDROOT
BRANCH  17  35
ATOM     35  C   UNK A  13      19.679  -0.533  17.249  0.00  0.00    +0.000 C 
ATOM     36  O   UNK A  13      19.526   0.314  18.137  0.00  0.00    +0.000 OA
ATOM     37  N   ILE A  14      18.682  -0.973  16.476  0.00  0.00    +0.000 N 
ATOM     38  H   ILE A  14      18.888  -1.701  15.762  0.00  0.00    +0.000 HD
BRANCH  37  39
ATOM     39  CA  ILE A  14      17.306  -0.469  16.594  0.00  0.00    +0.000 C 
BRANCH  39  40
ATOM     40  CB  ILE A  14      16.346  -1.113  15.558  0.00  0.00    +0.000 C 
ATOM     41  CG2 ILE A  14      14.892  -0.672  15.787  0.00  0.00    +0.000 C 
BRANCH  40  42
ATOM     42  CG1 ILE A  14      16.804  -0.821  14.120  0.00  0.00    +0.000 C 
ATOM     43  CD1 ILE A  14      16.679   0.623  13.666  0.00  0.00    +0.000 C 
ENDBRANCH  40  42
ENDBRANCH  39  40
BRANCH  39  44
ATOM     44  C   ILE A  14      16.769  -0.670  18.017  0.00  0.00    +0.000 C 
ATOM     45  O   ILE A  14      16.185   0.250  18.601  0.00  0.00    +0.000 OA
ENDBRANCH  39  44
ENDBRANCH  37  39
ENDBRANCH  17  35
BRANCH   1  48
ATOM     46  C   HIS A   8      20.804  -8.423  14.301  0.00  0.00    +0.000 C 
ATOM     47  O   HIS A   8      20.508  -7.743  15.297  0.00  0.00    +0.000 OA
ATOM     48  N   UNK A   9      21.980  -8.321  13.675  0.00  0.00    +0.000 N 
ATOM     49  H   UNK A   9      22.213  -8.992  12.915  0.00  0.00    +0.000 HD
BRANCH  46  50
ATOM     50  CA  HIS A   8      19.797  -9.436  13.726  0.00  0.00    +0.000 C 
BRANCH  50  52
ATOM     51  C   ALA A   7      19.411  -8.469  11.505  0.00  0.00    +0.000 C 
ATOM     52  N   HIS A   8      19.819  -9.496  12.254  0.00  0.00    +0.000 N 
ATOM     53  H   HIS A   8      20.161 -10.360  11.787  0.00  0.00    +0.000 HD
ATOM     54  O   ALA A   7      19.003  -7.410  11.974  0.00  0.00    +0.000 OA
BRANCH  51  55
ATOM     55  CA  ALA A   7      19.502  -8.639   9.987  0.00  0.00    +0.000 C 
BRANCH  55  58
ATOM     56  C   UNK A   6      21.961  -8.682   9.993  0.00  0.00    +0.000 C 
ATOM     57  O   UNK A   6      22.027  -7.652  10.684  0.00  0.00    +0.000 OA
ATOM     58  N   ALA A   7      20.800  -9.225   9.615  0.00  0.00    +0.000 N 
ATOM     59  H   ALA A   7      20.814 -10.091   9.039  0.00  0.00    +0.000 HD
BRANCH  56  60
ATOM     60  C   UNK A   6      23.251  -9.422   9.570  0.00  0.00    +0.000 C 
BRANCH  60  63
ATOM     61  C   HIS A   5      22.871 -11.398  10.986  0.00  0.00    +0.000 C 
ATOM     62  O   HIS A   5      22.752 -10.724  12.006  0.00  0.00    +0.000 OA
ATOM     63  N   UNK A   6      23.127 -10.868   9.789  0.00  0.00    +0.000 N 
ATOM     64  H   UNK A   6      23.244 -11.506   8.976  0.00  0.00    +0.000 HD
BRANCH  61  65
ATOM     65  CA  HIS A   5      22.732 -12.917  11.049  0.00  0.00    +0.000 C 
BRANCH  65  68
ATOM     66  C   PHE A   4      20.654 -13.128   9.760  0.00  0.00    +0.000 C 
ATOM     67  O   PHE A   4      19.986 -12.485  10.598  0.00  0.00    +0.000 OA
ATOM     68  N   HIS A   5      21.953 -13.414   9.909  0.00  0.00    +0.000 N 
ATOM     69  H   HIS A   5      22.424 -14.006   9.196  0.00  0.00    +0.000 HD
BRANCH  66  70
ATOM     70  CA  PHE A   4      20.002 -13.630   8.471  0.00  0.00    +0.000 C 
BRANCH  70  73
ATOM     71  C   GLY A   3      21.281 -12.187   6.974  0.00  0.00    +0.000 C 
ATOM     72  O   GLY A   3      20.827 -11.161   7.492  0.00  0.00    +0.000 OA
ATOM     73  N   PHE A   4      20.907 -13.413   7.341  0.00  0.00    +0.000 N 
ATOM     74  H   PHE A   4      21.266 -14.234   6.813  0.00  0.00    +0.000 HD
BRANCH  71  75
ATOM     75  CA  GLY A   3      22.343 -12.081   5.869  0.00  0.00    +0.000 C 
BRANCH  75  78
ATOM     76  C   PRO A   2      24.212 -13.353   6.801  0.00  0.00    +0.000 C 
ATOM     77  O   PRO A   2      24.333 -12.571   7.747  0.00  0.00    +0.000 OA
ATOM     78  N   GLY A   3      23.295 -13.196   5.850  0.00  0.00    +0.000 N 
ATOM     79  H   GLY A   3      23.252 -13.884   5.071  0.00  0.00    +0.000 HD
BRANCH  76  80
ATOM     80  CA  PRO A   2      25.124 -14.590   6.675  0.00  0.00    +0.000 C 
BRANCH  80  83
ATOM     81  C   ASN A   1      23.296 -16.220   6.882  0.00  0.00    +0.000 C 
ATOM     82  O   ASN A   1      22.853 -15.697   7.911  0.00  0.00    +0.000 OA
ATOM     83  N   PRO A   2      24.371 -15.765   6.239  0.00  0.00    +0.000 N 
ATOM     84  H   PRO A   2      24.689 -16.269   5.387  0.00  0.00    +0.000 HD
BRANCH  81  85
ATOM     85  CA  ASN A   1      22.597 -17.453   6.259  0.00  0.00    +0.000 C 
BRANCH  85  86
ATOM     86  N   ASN A   1      22.315 -17.233   4.836  0.00  0.00    +0.000 NA
ATOM     87  H   ASN A   1      22.701 -17.908   4.146  0.00  0.00    +0.000 HD
ENDBRANCH  85  86
BRANCH  85  88
ATOM     88  CB  ASN A   1      23.451 -18.721   6.436  0.00  0.00    +0.000 C 
BRANCH  88  89
ATOM     89  CG  ASN A   1      23.985 -18.944   7.845  0.00  0.00    +0.000 C 
BRANCH  89  90
ATOM     90  CD  ASN A   1      24.558 -20.338   8.063  0.00  0.00    +0.000 C 
ATOM     91  NE2 ASN A   1      25.762 -20.402   8.618  0.00  0.00    +0.000 N 
ATOM     92 HE21 ASN A   1      26.270 -19.528   8.861  0.00  0.00    +0.000 HD
ATOM     93 HE22 ASN A   1      26.198 -21.327   8.809  0.00  0.00    +0.000 HD
ATOM     94  OE1 ASN A   1      23.918 -21.341   7.757  0.00  0.00    +0.000 OA
ENDBRANCH  89  90
ENDBRANCH  88  89
ENDBRANCH  85  88
ENDBRANCH  81  85
ENDBRANCH  80  83
BRANCH  80  95
ATOM     95  CB  PRO A   2      26.266 -14.341   5.677  0.00  0.00    +0.000 C 
BRANCH  95  96
ATOM     96  CG  PRO A   2      27.004 -13.042   5.927  0.00  0.00    +0.000 C 
ATOM     97  OD2 PRO A   2      27.700 -12.936   6.960  0.00  0.00    +0.000 OA
ATOM     98  OD1 PRO A   2      26.907 -12.131   5.071  0.00  0.00    +0.000 OA
ENDBRANCH  95  96
ENDBRANCH  80  95
ENDBRANCH  76  80
ENDBRANCH  75  78
BRANCH  75  99
ATOM     99  CB  GLY A   3      21.706 -11.893   4.497  0.00  0.00    +0.000 C 
BRANCH  99 100
ATOM    100  CG  GLY A   3      22.617 -11.170   3.514  0.00  0.00    +0.000 C 
BRANCH 100 101
ATOM    101  CD  GLY A   3      22.610  -9.666   3.709  0.00  0.00    +0.000 C 
ATOM    102  NE2 GLY A   3      23.712  -9.122   4.223  0.00  0.00    +0.000 N 
ATOM    103 HE21 GLY A   3      24.524  -9.724   4.467  0.00  0.00    +0.000 HD
ATOM    104 HE22 GLY A   3      23.760  -8.095   4.380  0.00  0.00    +0.000 HD
ATOM    105  OE1 GLY A   3      21.622  -9.000   3.403  0.00  0.00    +0.000 OA
ENDBRANCH 100 101
ENDBRANCH  99 100
ENDBRANCH  75  99
ENDBRANCH  71  75
ENDBRANCH  70  73
BRANCH  70 106
ATOM    106  CB  PHE A   4      19.607 -15.103   8.601  0.00  0.00    +0.000 C 
BRANCH 106 107
ATOM    107  CG  PHE A   4      18.591 -15.493   9.688  0.00  0.00    +0.000 C 
ATOM    108  CD2 PHE A   4      18.397 -17.002   9.725  0.00  0.00    +0.000 C 
ATOM    109  CD1 PHE A   4      17.249 -14.794   9.503  0.00  0.00    +0.000 C 
ENDBRANCH 106 107
ENDBRANCH  70 106
ENDBRANCH  66  70
ENDBRANCH  65  68
BRANCH  65 110
ATOM    110  CB  HIS A   5      24.133 -13.558  11.123  0.00  0.00    +0.000 C 
BRANCH 110 111
ATOM    111  CG  HIS A   5      24.136 -15.063  11.151  0.00  0.00    +0.000 A 
ATOM    112  CD2 HIS A   5      23.044 -15.785  11.632  0.00  0.00    +0.000 A 
ATOM    113  CE2 HIS A   5      23.066 -17.173  11.651  0.00  0.00    +0.000 A 
ATOM    114  CZ  HIS A   5      24.200 -17.853  11.220  0.00  0.00    +0.000 A 
ATOM    115  CE1 HIS A   5      25.303 -17.146  10.773  0.00  0.00    +0.000 A 
ATOM    116  CD1 HIS A   5      25.268 -15.763  10.733  0.00  0.00    +0.000 A 
ENDBRANCH 110 111
ENDBRANCH  65 110
ENDBRANCH  61  65
ENDBRANCH  60  63
BRANCH  60 117
ATOM    117  C   UNK A   6      23.650  -9.095   8.105  0.00  0.00    +0.000 C 
ATOM    118  C   UNK A   6      23.781  -7.570   7.869  0.00  0.00    +0.000 C 
BRANCH 117 119
ATOM    119  O   UNK A   6      24.913  -9.713   7.796  0.00  0.00    +0.000 OA
ATOM    120  H   UNK A   6      25.163  -9.502   6.862  0.00  0.00    +0.000 HD
ENDBRANCH 117 119
ENDBRANCH  60 117
ENDBRANCH  56  60
ENDBRANCH  55  58
BRANCH  55 121
ATOM    121  CB  ALA A   7      18.299  -9.451   9.434  0.00  0.00    +0.000 C 
ATOM    122  CG2 ALA A   7      16.988  -9.024  10.095  0.00  0.00    +0.000 C 
ATOM    123  CG1 ALA A   7      18.199  -9.267   7.922  0.00  0.00    +0.000 C 
ENDBRANCH  55 121
ENDBRANCH  51  55
ENDBRANCH  50  52
BRANCH  50 124
ATOM    124  CB  HIS A   8      20.040 -10.815  14.328  0.00  0.00    +0.000 C 
BRANCH 124 125
ATOM    125  CG  HIS A   8      18.890 -11.761  14.166  0.00  0.00    +0.000 A 
ATOM    126  CD2 HIS A   8      17.958 -12.191  15.049  0.00  0.00    +0.000 A 
ATOM    127  NE2 HIS A   8      17.131 -13.060  14.380  0.00  0.00    +0.000 NA
ATOM    128  CE1 HIS A   8      17.548 -13.171  13.129  0.00  0.00    +0.000 A 
ATOM    129  ND1 HIS A   8      18.610 -12.397  12.974  0.00  0.00    +0.000 NA
ENDBRANCH 124 125
ENDBRANCH  50 124
ENDBRANCH  46  50
ENDBRANCH   1  48
BRANCH   9 130
ATOM    130  CB  LEU A  11      17.038  -6.063  14.588  0.00  0.00    +0.000 C 
BRANCH 130 131
ATOM    131  CG  LEU A  11      16.182  -6.156  13.315  0.00  0.00    +0.000 C 
ATOM    132  CD2 LEU A  11      15.459  -7.499  13.252  0.00  0.00    +0.000 C 
ATOM    133  CD1 LEU A  11      15.193  -5.002  13.204  0.00  0.00    +0.000 C 
ENDBRANCH 130 131
ENDBRANCH   9 130
BRANCH   5 134
ATOM    134  CB  GLU A  10      20.638  -4.124  11.109  0.00  0.00    +0.000 C 
BRANCH 134 135
ATOM    135  CG  GLU A  10      21.717  -4.397  10.069  0.00  0.00    +0.000 C 
BRANCH 135 136
ATOM    136  CD  GLU A  10      22.999  -3.611  10.294  0.00  0.00    +0.000 C 
ATOM    137  OE2 GLU A  10      22.935  -2.443  10.750  0.00  0.00    +0.000 OA
ATOM    138  OE1 GLU A  10      24.079  -4.164   9.990  0.00  0.00    +0.000 OA
ENDBRANCH 135 136
ENDBRANCH 134 135
ENDBRANCH   5 134
BRANCH  23 139
ATOM    139  O   UNK A   6      28.104  -2.300  15.077  0.00  0.00    +0.000 OA
BRANCH 139 140
ATOM    140  C   UNK A   6      28.605  -1.384  15.747  0.00  0.00    +0.000 C 
ATOM    141  O   UNK A   6      28.360  -0.187  15.517  0.00  0.00    +0.000 OA
BRANCH 140 142
ATOM    142  C   UNK A   6      29.523  -1.760  16.901  0.00  0.00    +0.000 C 
BRANCH 142 143
ATOM    143  C   UNK A   6      29.195  -3.136  17.463  0.00  0.00    +0.000 C 
BRANCH 143 144
ATOM    144  C   UNK A   6      27.753  -3.262  17.989  0.00  0.00    +0.000 C 
BRANCH 144 145
ATOM    145  C   UNK A   6      27.510  -4.666  18.545  0.00  0.00    +0.000 C 
ATOM    146  N   ALA A   7      27.593  -4.814  19.868  0.00  0.00    +0.000 N 
ATOM    147  H   ALA A   7      27.746  -3.976  20.465  0.00  0.00    +0.000 HD
ATOM    148  O   UNK A   6      27.232  -5.592  17.794  0.00  0.00    +0.000 OA
BRANCH 146 149
ATOM    149  CA  ALA A   7      27.473  -6.132  20.500  0.00  0.00    +0.000 C 
ATOM    150  CB  ALA A   7      28.100  -6.122  21.891  0.00  0.00    +0.000 C 
BRANCH 149 151
ATOM    151  C   ALA A   7      26.046  -6.700  20.564  0.00  0.00    +0.000 C 
ATOM    152  O   ALA A   7      25.870  -7.917  20.455  0.00  0.00    +0.000 OA
ENDBRANCH 149 151
ENDBRANCH 146 149
ENDBRANCH 144 145
BRANCH 144 153
ATOM    153  N   UNK A   6      27.475  -2.222  18.995  0.00  0.00    +0.000 N 
ATOM    154  H   UNK A   6      28.270  -1.734  19.455  0.00  0.00    +0.000 HD
ATOM    155  C   HIS A   5      26.226  -1.891  19.330  0.00  0.00    +0.000 C 
ATOM    156  O   HIS A   5      25.231  -2.439  18.847  0.00  0.00    +0.000 OA
BRANCH 155 157
ATOM    157  CA  HIS A   5      26.069  -0.778  20.364  0.00  0.00    +0.000 C 
BRANCH 157 158
ATOM    158  N   HIS A   5      27.074  -0.887  21.429  0.00  0.00    +0.000 N 
ATOM    159  C   PHE A   4      27.118  -1.950  22.229  0.00  0.00    +0.000 C 
ATOM    160  O   PHE A   4      26.367  -2.916  22.093  0.00  0.00    +0.000 OA
ATOM    161  H   HIS A   5      27.764  -0.120  21.561  0.00  0.00    +0.000 HD
BRANCH 159 162
ATOM    162  CA  PHE A   4      28.171  -1.942  23.339  0.00  0.00    +0.000 C 
BRANCH 162 163
ATOM    163  N   PHE A   4      29.486  -1.489  22.870  0.00  0.00    +0.000 N 
ATOM    164  H   PHE A   4      29.945  -0.686  23.345  0.00  0.00    +0.000 HD
ATOM    165  C   GLY A   3      30.110  -2.085  21.845  0.00  0.00    +0.000 C 
ATOM    166  O   GLY A   3      29.681  -3.112  21.318  0.00  0.00    +0.000 OA
BRANCH 165 167
ATOM    167  CA  GLY A   3      31.422  -1.464  21.367  0.00  0.00    +0.000 C 
BRANCH 167 168
ATOM    168  N   GLY A   3      31.437  -0.001  21.418  0.00  0.00    +0.000 N 
ATOM    169  H   GLY A   3      32.114   0.477  22.046  0.00  0.00    +0.000 HD
ATOM    170  C   PRO A   2      30.606   0.732  20.681  0.00  0.00    +0.000 C 
ATOM    171  O   PRO A   2      29.831   0.238  19.860  0.00  0.00    +0.000 OA
BRANCH 170 172
ATOM    172  CA  PRO A   2      30.642   2.259  20.858  0.00  0.00    +0.000 C 
ATOM    173  N   PRO A   2      31.042   2.724  22.192  0.00  0.00    +0.000 N 
ATOM    174  C   ASN A   1      30.265   2.316  23.215  0.00  0.00    +0.000 C 
ATOM    175  O   ASN A   1      29.298   1.555  23.054  0.00  0.00    +0.000 OA
ATOM    176  CD  PRO A   2      32.111   3.745  22.107  0.00  0.00    +0.000 C 
ATOM    177  CG  PRO A   2      32.066   4.154  20.656  0.00  0.00    +0.000 C 
ATOM    178  CB  PRO A   2      31.700   2.889  19.947  0.00  0.00    +0.000 C 
BRANCH 174 179
ATOM    179  CA  ASN A   1      30.548   2.868  24.617  0.00  0.00    +0.000 C 
BRANCH 179 180
ATOM    180  N   ASN A   1      29.383   2.505  25.441  0.00  0.00    +0.000 NA
ATOM    181  H   ASN A   1      28.895   1.608  25.245  0.00  0.00    +0.000 HD
ENDBRANCH 179 180
BRANCH 179 182
ATOM    182  CB  ASN A   1      31.913   2.441  25.227  0.00  0.00    +0.000 C 
BRANCH 182 183
ATOM    183  CG  ASN A   1      32.226   0.957  25.077  0.00  0.00    +0.000 C 
ATOM    184  ND2 ASN A   1      32.842   0.385  26.104  0.00  0.00    +0.000 N 
ATOM    185 HD21 ASN A   1      33.030   0.932  26.968  0.00  0.00    +0.000 HD
ATOM    186 HD22 ASN A   1      33.137  -0.610  26.045  0.00  0.00    +0.000 HD
ATOM    187  OD1 ASN A   1      31.983   0.347  24.033  0.00  0.00    +0.000 OA
ENDBRANCH 182 183
ENDBRANCH 179 182
ENDBRANCH 174 179
ENDBRANCH 170 172
ENDBRANCH 167 168
ENDBRANCH 165 167
ENDBRANCH 162 163
BRANCH 162 188
ATOM    188  CB  PHE A   4      27.680  -1.087  24.507  0.00  0.00    +0.000 C 
BRANCH 188 189
ATOM    189  CG  PHE A   4      28.296  -1.450  25.833  0.00  0.00    +0.000 A 
ATOM    190  CD2 PHE A   4      27.486  -1.774  26.919  0.00  0.00    +0.000 A 
ATOM    191  CE2 PHE A   4      28.044  -2.104  28.144  0.00  0.00    +0.000 A 
ATOM    192  CZ  PHE A   4      29.419  -2.091  28.303  0.00  0.00    +0.000 A 
ATOM    193  CE1 PHE A   4      30.245  -1.761  27.235  0.00  0.00    +0.000 A 
ATOM    194  CD1 PHE A   4      29.678  -1.438  26.009  0.00  0.00    +0.000 A 
ENDBRANCH 188 189
ENDBRANCH 162 188
ENDBRANCH 159 162
ENDBRANCH 157 158
BRANCH 157 195
ATOM    195  CB  HIS A   5      26.128   0.598  19.680  0.00  0.00    +0.000 C 
BRANCH 195 196
ATOM    196  CG  HIS A   5      24.802   1.290  19.596  0.00  0.00    +0.000 A 
ATOM    197  CD2 HIS A   5      24.340   2.412  20.202  0.00  0.00    +0.000 A 
ATOM    198  NE2 HIS A   5      23.047   2.601  19.777  0.00  0.00    +0.000 NA
ATOM    199  CE1 HIS A   5      22.731   1.635  18.931  0.00  0.00    +0.000 A 
ATOM    200  ND1 HIS A   5      23.770   0.827  18.808  0.00  0.00    +0.000 NA
ENDBRANCH 195 196
ENDBRANCH 157 195
ENDBRANCH 155 157
ENDBRANCH 144 153
ENDBRANCH 143 144
ENDBRANCH 142 143
ENDBRANCH 140 142
ENDBRANCH 139 140
ENDBRANCH  23 139
TORSDOF 68
REMARK  Name = ../refined-set-2016/4ca7/4ca7_pocket.pdb
REMARK  306 active torsions:
REMARK  status: ('A' for Active; 'I' for Inactive)
REMARK    1  A    between atoms: _1  and  _3
REMARK    2  A    between atoms: _3  and  _4
REMARK    3  A    between atoms: _3  and  _6
REMARK    4  A    between atoms: _6  and  _7
REMARK    5  A    between atoms: _7  and  _8
REMARK    6  A    between atoms: _8  and  _9
REMARK    7  A    between atoms: _9  and  _10
REMARK    8  A    between atoms: _14  and  _16
REMARK    9  A    between atoms: _16  and  _17
REMARK   10  A    between atoms: _16  and  _19
REMARK   11  A    between atoms: _19  and  _20
REMARK   12  A    between atoms: _20  and  _21
REMARK   13  A    between atoms: _24  and  _26
REMARK   14  A    between atoms: _26  and  _27
REMARK   15  A    between atoms: _26  and  _29
REMARK   16  A    between atoms: _29  and  _30
REMARK   17  A    between atoms: _30  and  _31
REMARK   18  A    between atoms: _34  and  _36
REMARK   19  A    between atoms: _36  and  _37
REMARK   20  A    between atoms: _36  and  _39
REMARK   21  A    between atoms: _39  and  _40
REMARK   22  A    between atoms: _45  and  _47
REMARK   23  A    between atoms: _47  and  _48
REMARK   24  A    between atoms: _47  and  _50
REMARK   25  A    between atoms: _50  and  _51
REMARK   26  A    between atoms: _61  and  _63
REMARK   27  A    between atoms: _63  and  _64
REMARK   28  A    between atoms: _63  and  _66
REMARK   29  A    between atoms: _66  and  _67
REMARK   30  A    between atoms: _67  and  _68
REMARK   31  A    between atoms: _73  and  _75
REMARK   32  A    between atoms: _75  and  _76
REMARK   33  A    between atoms: _75  and  _78
REMARK   34  A    between atoms: _78  and  _79
REMARK   35  A    between atoms: _79  and  _80
REMARK   36  A    between atoms: _85  and  _87
REMARK   37  A    between atoms: _87  and  _88
REMARK   38  A    between atoms: _87  and  _90
REMARK   39  A    between atoms: _90  and  _91
REMARK   40  A    between atoms: _93  and  _95
REMARK   41  A    between atoms: _95  and  _96
REMARK   42  A    between atoms: _95  and  _98
REMARK   43  A    between atoms: _101  and  _103
REMARK   44  A    between atoms: _103  and  _104
REMARK   45  A    between atoms: _103  and  _106
REMARK   46  A    between atoms: _108  and  _110
REMARK   47  A    between atoms: _110  and  _111
REMARK   48  A    between atoms: _110  and  _113
REMARK   49  A    between atoms: _113  and  _114
REMARK   50  A    between atoms: _119  and  _121
REMARK   51  A    between atoms: _121  and  _122
REMARK   52  A    between atoms: _125  and  _127
REMARK   53  A    between atoms: _127  and  _128
REMARK   54  A    between atoms: _127  and  _130
REMARK   55  A    between atoms: _130  and  _131
REMARK   56  A    between atoms: _133  and  _135
REMARK   57  A    between atoms: _135  and  _136
REMARK   58  A    between atoms: _139  and  _141
REMARK   59  A    between atoms: _141  and  _142
REMARK   60  A    between atoms: _141  and  _144
REMARK   61  A    between atoms: _144  and  _145
REMARK   62  A    between atoms: _155  and  _157
REMARK   63  A    between atoms: _157  and  _158
REMARK   64  A    between atoms: _157  and  _160
REMARK   65  A    between atoms: _160  and  _161
REMARK   66  A    between atoms: _164  and  _166
REMARK   67  A    between atoms: _166  and  _167
REMARK   68  A    between atoms: _166  and  _169
REMARK   69  A    between atoms: _169  and  _170
REMARK   70  A    between atoms: _175  and  _176
REMARK   71  A    between atoms: _178  and  _180
REMARK   72  A    between atoms: _180  and  _181
REMARK   73  A    between atoms: _180  and  _183
REMARK   74  A    between atoms: _183  and  _184
REMARK   75  A    between atoms: _184  and  _185
REMARK   76  A    between atoms: _185  and  _186
REMARK   77  A    between atoms: _195  and  _197
REMARK   78  A    between atoms: _197  and  _198
REMARK   79  A    between atoms: _197  and  _200
REMARK   80  A    between atoms: _200  and  _201
REMARK   81  A    between atoms: _204  and  _206
REMARK   82  A    between atoms: _206  and  _207
REMARK   83  A    between atoms: _206  and  _209
REMARK   84  A    between atoms: _209  and  _210
REMARK   85  A    between atoms: _210  and  _211
REMARK   86  A    between atoms: _211  and  _212
REMARK   87  A    between atoms: _212  and  _213
REMARK   88  A    between atoms: _217  and  _219
REMARK   89  A    between atoms: _219  and  _220
REMARK   90  A    between atoms: _219  and  _222
REMARK   91  A    between atoms: _222  and  _223
REMARK   92  A    between atoms: _223  and  _224
REMARK   93  A    between atoms: _229  and  _231
REMARK   94  A    between atoms: _231  and  _232
REMARK   95  A    between atoms: _231  and  _234
REMARK   96  A    between atoms: _234  and  _235
REMARK   97  A    between atoms: _235  and  _236
REMARK   98  A    between atoms: _236  and  _237
REMARK   99  A    between atoms: _246  and  _248
REMARK  100  A    between atoms: _248  and  _249
REMARK  101  A    between atoms: _248  and  _251
REMARK  102  A    between atoms: _251  and  _252
REMARK  103  A    between atoms: _252  and  _253
REMARK  104  A    between atoms: _258  and  _260
REMARK  105  A    between atoms: _260  and  _261
REMARK  106  A    between atoms: _260  and  _263
REMARK  107  A    between atoms: _263  and  _264
REMARK  108  A    between atoms: _267  and  _269
REMARK  109  A    between atoms: _269  and  _270
REMARK  110  A    between atoms: _269  and  _272
REMARK  111  A    between atoms: _272  and  _273
REMARK  112  A    between atoms: _273  and  _274
REMARK  113  A    between atoms: _279  and  _281
REMARK  114  A    between atoms: _281  and  _282
REMARK  115  A    between atoms: _281  and  _284
REMARK  116  A    between atoms: _284  and  _285
REMARK  117  A    between atoms: _288  and  _290
REMARK  118  A    between atoms: _290  and  _291
REMARK  119  A    between atoms: _290  and  _293
REMARK  120  A    between atoms: _293  and  _294
REMARK  121  A    between atoms: _300  and  _302
REMARK  122  A    between atoms: _302  and  _303
REMARK  123  A    between atoms: _302  and  _305
REMARK  124  A    between atoms: _305  and  _306
REMARK  125  A    between atoms: _309  and  _311
REMARK  126  A    between atoms: _311  and  _312
REMARK  127  A    between atoms: _311  and  _314
REMARK  128  A    between atoms: _317  and  _319
REMARK  129  A    between atoms: _319  and  _320
REMARK  130  A    between atoms: _319  and  _322
REMARK  131  A    between atoms: _322  and  _323
REMARK  132  A    between atoms: _328  and  _330
REMARK  133  A    between atoms: _341  and  _344
REMARK  134  A    between atoms: _344  and  _345
REMARK  135  A    between atoms: _345  and  _346
REMARK  136  A    between atoms: _351  and  _354
REMARK  137  A    between atoms: _354  and  _355
REMARK  138  A    between atoms: _365  and  _366
REMARK  139  A    between atoms: _374  and  _376
REMARK  140  A    between atoms: _376  and  _377
REMARK  141  A    between atoms: _376  and  _379
REMARK  142  A    between atoms: _379  and  _380
REMARK  143  A    between atoms: _383  and  _385
REMARK  144  A    between atoms: _385  and  _386
REMARK  145  A    between atoms: _385  and  _388
REMARK  146  A    between atoms: _388  and  _389
REMARK  147  A    between atoms: _394  and  _395
REMARK  148  A    between atoms: _397  and  _399
REMARK  149  A    between atoms: _399  and  _400
REMARK  150  A    between atoms: _399  and  _402
REMARK  151  A    between atoms: _402  and  _403
REMARK  152  A    between atoms: _409  and  _411
REMARK  153  A    between atoms: _411  and  _412
REMARK  154  A    between atoms: _411  and  _414
REMARK  155  A    between atoms: _414  and  _415
REMARK  156  A    between atoms: _420  and  _421
REMARK  157  A    between atoms: _423  and  _425
REMARK  158  A    between atoms: _425  and  _426
REMARK  159  A    between atoms: _425  and  _428
REMARK  160  A    between atoms: _428  and  _429
REMARK  161  A    between atoms: _429  and  _430
REMARK  162  A    between atoms: _430  and  _431
REMARK  163  A    between atoms: _440  and  _442
REMARK  164  A    between atoms: _442  and  _443
REMARK  165  A    between atoms: _442  and  _445
REMARK  166  A    between atoms: _445  and  _446
REMARK  167  A    between atoms: _449  and  _451
REMARK  168  A    between atoms: _451  and  _452
REMARK  169  A    between atoms: _454  and  _456
REMARK  170  A    between atoms: _456  and  _457
REMARK  171  A    between atoms: _456  and  _459
REMARK  172  A    between atoms: _459  and  _460
REMARK  173  A    between atoms: _466  and  _467
REMARK  174  A    between atoms: _472  and  _474
REMARK  175  A    between atoms: _474  and  _475
REMARK  176  A    between atoms: _477  and  _479
REMARK  177  A    between atoms: _479  and  _480
REMARK  178  A    between atoms: _479  and  _482
REMARK  179  A    between atoms: _482  and  _483
REMARK  180  A    between atoms: _489  and  _491
REMARK  181  A    between atoms: _491  and  _492
REMARK  182  A    between atoms: _491  and  _494
REMARK  183  A    between atoms: _494  and  _495
REMARK  184  A    between atoms: _500  and  _502
REMARK  185  A    between atoms: _502  and  _503
REMARK  186  A    between atoms: _502  and  _505
REMARK  187  A    between atoms: _505  and  _506
REMARK  188  A    between atoms: _506  and  _507
REMARK  189  A    between atoms: _507  and  _508
REMARK  190  A    between atoms: _508  and  ZN_790
REMARK  191  A    between atoms: _510  and  _512
REMARK  192  A    between atoms: _512  and  _513
REMARK  193  A    between atoms: _516  and  _518
REMARK  194  A    between atoms: _518  and  _519
REMARK  195  A    between atoms: _521  and  _523
REMARK  196  A    between atoms: _523  and  _524
REMARK  197  A    between atoms: _523  and  _526
REMARK  198  A    between atoms: _526  and  _527
REMARK  199  A    between atoms: _530  and  _532
REMARK  200  A    between atoms: _532  and  _533
REMARK  201  A    between atoms: _532  and  _535
REMARK  202  A    between atoms: _538  and  _540
REMARK  203  A    between atoms: _540  and  _541
REMARK  204  A    between atoms: _540  and  _543
REMARK  205  A    between atoms: _543  and  _544
REMARK  206  A    between atoms: _546  and  _548
REMARK  207  A    between atoms: _548  and  _549
REMARK  208  A    between atoms: _548  and  _551
REMARK  209  A    between atoms: _551  and  _552
REMARK  210  A    between atoms: _555  and  _557
REMARK  211  A    between atoms: _557  and  _558
REMARK  212  A    between atoms: _557  and  _560
REMARK  213  A    between atoms: _560  and  _561
REMARK  214  A    between atoms: _563  and  _565
REMARK  215  A    between atoms: _565  and  _566
REMARK  216  A    between atoms: _565  and  _568
REMARK  217  A    between atoms: _568  and  _569
REMARK  218  A    between atoms: _572  and  _574
REMARK  219  A    between atoms: _574  and  _575
REMARK  220  A    between atoms: _574  and  _577
REMARK  221  A    between atoms: _577  and  _578
REMARK  222  A    between atoms: _578  and  _579
REMARK  223  A    between atoms: _579  and  _580
REMARK  224  A    between atoms: _580  and  _581
REMARK  225  A    between atoms: _585  and  _587
REMARK  226  A    between atoms: _587  and  _588
REMARK  227  A    between atoms: _587  and  _590
REMARK  228  A    between atoms: _590  and  _591
REMARK  229  A    between atoms: _597  and  _599
REMARK  230  A    between atoms: _599  and  _600
REMARK  231  A    between atoms: _599  and  _602
REMARK  232  A    between atoms: _602  and  _603
REMARK  233  A    between atoms: _609  and  _611
REMARK  234  A    between atoms: _611  and  _612
REMARK  235  A    between atoms: _615  and  _617
REMARK  236  A    between atoms: _617  and  _618
REMARK  237  A    between atoms: _617  and  _620
REMARK  238  A    between atoms: _620  and  _621
REMARK  239  A    between atoms: _621  and  _622
REMARK  240  A    between atoms: _624  and  _626
REMARK  241  A    between atoms: _626  and  _627
REMARK  242  A    between atoms: _626  and  _629
REMARK  243  A    between atoms: _629  and  _630
REMARK  244  A    between atoms: _630  and  _631
REMARK  245  A    between atoms: _631  and  _632
REMARK  246  A    between atoms: _632  and  _633
REMARK  247  A    between atoms: _637  and  _639
REMARK  248  A    between atoms: _639  and  _640
REMARK  249  A    between atoms: _639  and  _642
REMARK  250  A    between atoms: _642  and  _643
REMARK  251  A    between atoms: _648  and  _649
REMARK  252  A    between atoms: _651  and  _653
REMARK  253  A    between atoms: _653  and  _654
REMARK  254  A    between atoms: _653  and  _656
REMARK  255  A    between atoms: _656  and  _657
REMARK  256  A    between atoms: _662  and  _664
REMARK  257  A    between atoms: _664  and  _665
REMARK  258  A    between atoms: _664  and  _667
REMARK  259  A    between atoms: _667  and  _668
REMARK  260  A    between atoms: _671  and  _673
REMARK  261  A    between atoms: _673  and  _674
REMARK  262  A    between atoms: _677  and  _679
REMARK  263  A    between atoms: _679  and  _680
REMARK  264  A    between atoms: _679  and  _682
REMARK  265  A    between atoms: _682  and  _683
REMARK  266  A    between atoms: _686  and  _688
REMARK  267  A    between atoms: _688  and  _689
REMARK  268  A    between atoms: _688  and  _691
REMARK  269  A    between atoms: _694  and  _696
REMARK  270  A    between atoms: _696  and  _697
REMARK  271  A    between atoms: _696  and  _699
REMARK  272  A    between atoms: _699  and  _700
REMARK  273  A    between atoms: _700  and  _701
REMARK  274  A    between atoms: _704  and  _706
REMARK  275  A    between atoms: _706  and  _707
REMARK  276  A    between atoms: _706  and  _709
REMARK  277  A    between atoms: _709  and  _710
REMARK  278  A    between atoms: _715  and  _716
REMARK  279  A    between atoms: _718  and  _720
REMARK  280  A    between atoms: _720  and  _721
REMARK  281  A    between atoms: _720  and  _723
REMARK  282  A    between atoms: _723  and  _724
REMARK  283  A    between atoms: _724  and  _725
REMARK  284  A    between atoms: _725  and  _726
REMARK  285  A    between atoms: _735  and  _737
REMARK  286  A    between atoms: _737  and  _738
REMARK  287  A    between atoms: _737  and  _740
REMARK  288  A    between atoms: _740  and  _741
REMARK  289  A    between atoms: _746  and  _747
REMARK  290  A    between atoms: _749  and  _751
REMARK  291  A    between atoms: _751  and  _752
REMARK  292  A    between atoms: _751  and  _754
REMARK  293  A    between atoms: _754  and  _755
REMARK  294  A    between atoms: _758  and  _760
REMARK  295  A    between atoms: _760  and  _761
REMARK  296  A    between atoms: _760  and  _763
REMARK  297  A    between atoms: _763  and  _764
REMARK  298  A    between atoms: _766  and  _768
REMARK  299  A    between atoms: _768  and  _769
REMARK  300  A    between atoms: _768  and  _771
REMARK  301  A    between atoms: _771  and  _772
REMARK  302  A    between atoms: _778  and  _780
REMARK  303  A    between atoms: _780  and  _781
REMARK  304  A    between atoms: _780  and  _783
REMARK  305  A    between atoms: _783  and  _784
REMARK  306  A    between atoms: _784  and  _785
REMARK                            x       y       z     vdW  Elec       q    Type
REMARK                         _______ _______ _______ _____ _____    ______ ____
ROOT
ATOM      1  C   TYR A   1      18.502   1.422  21.572  0.00  0.00    +0.239 C 
ATOM      2  O   TYR A   1      18.251   2.065  22.589  0.00  0.00    -0.274 OA
ATOM      3  N   PHE A   2      18.199   1.861  20.342  0.00  0.00    -0.298 N 
ATOM      4  H   PHE A   2      18.451   1.276  19.520  0.00  0.00    +0.150 HD
ENDROOT
BRANCH   1   5
ATOM      5  CA  TYR A   1      19.144   0.024  21.692  0.00  0.00    +0.149 C 
BRANCH   5   6
ATOM      6  N   TYR A   1      18.443  -0.910  20.813  0.00  0.00    -0.238 NA
ATOM      7  H   TYR A   1      18.974  -1.387  20.057  0.00  0.00    +0.142 HD
ENDBRANCH   5   6
BRANCH   5   8
ATOM      8  CB  TYR A   1      20.636   0.065  21.332  0.00  0.00    +0.053 C 
BRANCH   8   9
ATOM      9  CG  TYR A   1      21.633   0.210  22.481  0.00  0.00    -0.020 A 
ATOM     10  CD2 TYR A   1      21.285   0.816  23.702  0.00  0.00    -0.001 A 
ATOM     11  CE2 TYR A   1      22.220   0.951  24.728  0.00  0.00    +0.036 A 
ATOM     12  CZ  TYR A   1      23.525   0.496  24.528  0.00  0.00    +0.134 A 
ATOM     13  CE1 TYR A   1      23.884  -0.093  23.329  0.00  0.00    +0.036 A 
ATOM     14  CD1 TYR A   1      22.942  -0.229  22.321  0.00  0.00    -0.001 A 
BRANCH  12  15
ATOM     15  OH  TYR A   1      24.484   0.607  25.516  0.00  0.00    -0.506 OA
ATOM     16  HH  TYR A   1      24.088   1.045  26.311  0.00  0.00    +0.292 HD
ENDBRANCH  12  15
ENDBRANCH   8   9
ENDBRANCH   5   8
ENDBRANCH   1   5
BRANCH   3  17
ATOM     17  CA  PHE A   2      17.516   3.155  20.122  0.00  0.00    +0.141 C 
BRANCH  17  18
ATOM     18  C   PHE A   2      16.214   3.257  20.914  0.00  0.00    +0.227 C 
ATOM     19  O   PHE A   2      15.955   4.272  21.576  0.00  0.00    -0.286 OA
ENDBRANCH  17  18
BRANCH  17  20
ATOM     20  CB  PHE A   2      17.179   3.401  18.650  0.00  0.00    +0.054 C 
BRANCH  20  21
ATOM     21  CG  PHE A   2      18.363   3.420  17.726  0.00  0.00    -0.020 A 
ATOM     22  CD2 PHE A   2      19.642   3.777  18.178  0.00  0.00    -0.004 A 
ATOM     23  CE2 PHE A   2      20.722   3.804  17.313  0.00  0.00    -0.000 A 
ATOM     24  CZ  PHE A   2      20.534   3.496  15.970  0.00  0.00    -0.000 A 
ATOM     25  CE1 PHE A   2      19.271   3.148  15.508  0.00  0.00    -0.000 A 
ATOM     26  CD1 PHE A   2      18.191   3.129  16.376  0.00  0.00    -0.004 A 
ENDBRANCH  20  21
ENDBRANCH  17  20
ENDBRANCH   3  17
TORSDOF 9
REMARK  Name = ../refined-set-2016/4ca7/4ca7_pocket.pdb
REMARK  306 active torsions:
REMARK  status: ('A' for Active; 'I' for Inactive)
REMARK    1  A    between atoms: _1  and  _3
REMARK    2  A    between atoms: _3  and  _4
REMARK    3  A    between atoms: _3  and  _6
REMARK    4  A    between atoms: _6  and  _7
REMARK    5  A    between atoms: _7  and  _8
REMARK    6  A    between atoms: _8  and  _9
REMARK    7  A    between atoms: _9  and  _10
REMARK    8  A    between atoms: _14  and  _16
REMARK    9  A    between atoms: _16  and  _17
REMARK   10  A    between atoms: _16  and  _19
REMARK   11  A    between atoms: _19  and  _20
REMARK   12  A    between atoms: _20  and  _21
REMARK   13  A    between atoms: _24  and  _26
REMARK   14  A    between atoms: _26  and  _27
REMARK   15  A    between atoms: _26  and  _29
REMARK   16  A    between atoms: _29  and  _30
REMARK   17  A    between atoms: _30  and  _31
REMARK   18  A    between atoms: _34  and  _36
REMARK   19  A    between atoms: _36  and  _37
REMARK   20  A    between atoms: _36  and  _39
REMARK   21  A    between atoms: _39  and  _40
REMARK   22  A    between atoms: _45  and  _47
REMARK   23  A    between atoms: _47  and  _48
REMARK   24  A    between atoms: _47  and  _50
REMARK   25  A    between atoms: _50  and  _51
REMARK   26  A    between atoms: _61  and  _63
REMARK   27  A    between atoms: _63  and  _64
REMARK   28  A    between atoms: _63  and  _66
REMARK   29  A    between atoms: _66  and  _67
REMARK   30  A    between atoms: _67  and  _68
REMARK   31  A    between atoms: _73  and  _75
REMARK   32  A    between atoms: _75  and  _76
REMARK   33  A    between atoms: _75  and  _78
REMARK   34  A    between atoms: _78  and  _79
REMARK   35  A    between atoms: _79  and  _80
REMARK   36  A    between atoms: _85  and  _87
REMARK   37  A    between atoms: _87  and  _88
REMARK   38  A    between atoms: _87  and  _90
REMARK   39  A    between atoms: _90  and  _91
REMARK   40  A    between atoms: _93  and  _95
REMARK   41  A    between atoms: _95  and  _96
REMARK   42  A    between atoms: _95  and  _98
REMARK   43  A    between atoms: _101  and  _103
REMARK   44  A    between atoms: _103  and  _104
REMARK   45  A    between atoms: _103  and  _106
REMARK   46  A    between atoms: _108  and  _110
REMARK   47  A    between atoms: _110  and  _111
REMARK   48  A    between atoms: _110  and  _113
REMARK   49  A    between atoms: _113  and  _114
REMARK   50  A    between atoms: _119  and  _121
REMARK   51  A    between atoms: _121  and  _122
REMARK   52  A    between atoms: _125  and  _127
REMARK   53  A    between atoms: _127  and  _128
REMARK   54  A    between atoms: _127  and  _130
REMARK   55  A    between atoms: _130  and  _131
REMARK   56  A    between atoms: _133  and  _135
REMARK   57  A    between atoms: _135  and  _136
REMARK   58  A    between atoms: _139  and  _141
REMARK   59  A    between atoms: _141  and  _142
REMARK   60  A    between atoms: _141  and  _144
REMARK   61  A    between atoms: _144  and  _145
REMARK   62  A    between atoms: _155  and  _157
REMARK   63  A    between atoms: _157  and  _158
REMARK   64  A    between atoms: _157  and  _160
REMARK   65  A    between atoms: _160  and  _161
REMARK   66  A    between atoms: _164  and  _166
REMARK   67  A    between atoms: _166  and  _167
REMARK   68  A    between atoms: _166  and  _169
REMARK   69  A    between atoms: _169  and  _170
REMARK   70  A    between atoms: _175  and  _176
REMARK   71  A    between atoms: _178  and  _180
REMARK   72  A    between atoms: _180  and  _181
REMARK   73  A    between atoms: _180  and  _183
REMARK   74  A    between atoms: _183  and  _184
REMARK   75  A    between atoms: _184  and  _185
REMARK   76  A    between atoms: _185  and  _186
REMARK   77  A    between atoms: _195  and  _197
REMARK   78  A    between atoms: _197  and  _198
REMARK   79  A    between atoms: _197  and  _200
REMARK   80  A    between atoms: _200  and  _201
REMARK   81  A    between atoms: _204  and  _206
REMARK   82  A    between atoms: _206  and  _207
REMARK   83  A    between atoms: _206  and  _209
REMARK   84  A    between atoms: _209  and  _210
REMARK   85  A    between atoms: _210  and  _211
REMARK   86  A    between atoms: _211  and  _212
REMARK   87  A    between atoms: _212  and  _213
REMARK   88  A    between atoms: _217  and  _219
REMARK   89  A    between atoms: _219  and  _220
REMARK   90  A    between atoms: _219  and  _222
REMARK   91  A    between atoms: _222  and  _223
REMARK   92  A    between atoms: _223  and  _224
REMARK   93  A    between atoms: _229  and  _231
REMARK   94  A    between atoms: _231  and  _232
REMARK   95  A    between atoms: _231  and  _234
REMARK   96  A    between atoms: _234  and  _235
REMARK   97  A    between atoms: _235  and  _236
REMARK   98  A    between atoms: _236  and  _237
REMARK   99  A    between atoms: _246  and  _248
REMARK  100  A    between atoms: _248  and  _249
REMARK  101  A    between atoms: _248  and  _251
REMARK  102  A    between atoms: _251  and  _252
REMARK  103  A    between atoms: _252  and  _253
REMARK  104  A    between atoms: _258  and  _260
REMARK  105  A    between atoms: _260  and  _261
REMARK  106  A    between atoms: _260  and  _263
REMARK  107  A    between atoms: _263  and  _264
REMARK  108  A    between atoms: _267  and  _269
REMARK  109  A    between atoms: _269  and  _270
REMARK  110  A    between atoms: _269  and  _272
REMARK  111  A    between atoms: _272  and  _273
REMARK  112  A    between atoms: _273  and  _274
REMARK  113  A    between atoms: _279  and  _281
REMARK  114  A    between atoms: _281  and  _282
REMARK  115  A    between atoms: _281  and  _284
REMARK  116  A    between atoms: _284  and  _285
REMARK  117  A    between atoms: _288  and  _290
REMARK  118  A    between atoms: _290  and  _291
REMARK  119  A    between atoms: _290  and  _293
REMARK  120  A    between atoms: _293  and  _294
REMARK  121  A    between atoms: _300  and  _302
REMARK  122  A    between atoms: _302  and  _303
REMARK  123  A    between atoms: _302  and  _305
REMARK  124  A    between atoms: _305  and  _306
REMARK  125  A    between atoms: _309  and  _311
REMARK  126  A    between atoms: _311  and  _312
REMARK  127  A    between atoms: _311  and  _314
REMARK  128  A    between atoms: _317  and  _319
REMARK  129  A    between atoms: _319  and  _320
REMARK  130  A    between atoms: _319  and  _322
REMARK  131  A    between atoms: _322  and  _323
REMARK  132  A    between atoms: _328  and  _330
REMARK  133  A    between atoms: _341  and  _344
REMARK  134  A    between atoms: _344  and  _345
REMARK  135  A    between atoms: _345  and  _346
REMARK  136  A    between atoms: _351  and  _354
REMARK  137  A    between atoms: _354  and  _355
REMARK  138  A    between atoms: _365  and  _366
REMARK  139  A    between atoms: _374  and  _376
REMARK  140  A    between atoms: _376  and  _377
REMARK  141  A    between atoms: _376  and  _379
REMARK  142  A    between atoms: _379  and  _380
REMARK  143  A    between atoms: _383  and  _385
REMARK  144  A    between atoms: _385  and  _386
REMARK  145  A    between atoms: _385  and  _388
REMARK  146  A    between atoms: _388  and  _389
REMARK  147  A    between atoms: _394  and  _395
REMARK  148  A    between atoms: _397  and  _399
REMARK  149  A    between atoms: _399  and  _400
REMARK  150  A    between atoms: _399  and  _402
REMARK  151  A    between atoms: _402  and  _403
REMARK  152  A    between atoms: _409  and  _411
REMARK  153  A    between atoms: _411  and  _412
REMARK  154  A    between atoms: _411  and  _414
REMARK  155  A    between atoms: _414  and  _415
REMARK  156  A    between atoms: _420  and  _421
REMARK  157  A    between atoms: _423  and  _425
REMARK  158  A    between atoms: _425  and  _426
REMARK  159  A    between atoms: _425  and  _428
REMARK  160  A    between atoms: _428  and  _429
REMARK  161  A    between atoms: _429  and  _430
REMARK  162  A    between atoms: _430  and  _431
REMARK  163  A    between atoms: _440  and  _442
REMARK  164  A    between atoms: _442  and  _443
REMARK  165  A    between atoms: _442  and  _445
REMARK  166  A    between atoms: _445  and  _446
REMARK  167  A    between atoms: _449  and  _451
REMARK  168  A    between atoms: _451  and  _452
REMARK  169  A    between atoms: _454  and  _456
REMARK  170  A    between atoms: _456  and  _457
REMARK  171  A    between atoms: _456  and  _459
REMARK  172  A    between atoms: _459  and  _460
REMARK  173  A    between atoms: _466  and  _467
REMARK  174  A    between atoms: _472  and  _474
REMARK  175  A    between atoms: _474  and  _475
REMARK  176  A    between atoms: _477  and  _479
REMARK  177  A    between atoms: _479  and  _480
REMARK  178  A    between atoms: _479  and  _482
REMARK  179  A    between atoms: _482  and  _483
REMARK  180  A    between atoms: _489  and  _491
REMARK  181  A    between atoms: _491  and  _492
REMARK  182  A    between atoms: _491  and  _494
REMARK  183  A    between atoms: _494  and  _495
REMARK  184  A    between atoms: _500  and  _502
REMARK  185  A    between atoms: _502  and  _503
REMARK  186  A    between atoms: _502  and  _505
REMARK  187  A    between atoms: _505  and  _506
REMARK  188  A    between atoms: _506  and  _507
REMARK  189  A    between atoms: _507  and  _508
REMARK  190  A    between atoms: _508  and  ZN_790
REMARK  191  A    between atoms: _510  and  _512
REMARK  192  A    between atoms: _512  and  _513
REMARK  193  A    between atoms: _516  and  _518
REMARK  194  A    between atoms: _518  and  _519
REMARK  195  A    between atoms: _521  and  _523
REMARK  196  A    between atoms: _523  and  _524
REMARK  197  A    between atoms: _523  and  _526
REMARK  198  A    between atoms: _526  and  _527
REMARK  199  A    between atoms: _530  and  _532
REMARK  200  A    between atoms: _532  and  _533
REMARK  201  A    between atoms: _532  and  _535
REMARK  202  A    between atoms: _538  and  _540
REMARK  203  A    between atoms: _540  and  _541
REMARK  204  A    between atoms: _540  and  _543
REMARK  205  A    between atoms: _543  and  _544
REMARK  206  A    between atoms: _546  and  _548
REMARK  207  A    between atoms: _548  and  _549
REMARK  208  A    between atoms: _548  and  _551
REMARK  209  A    between atoms: _551  and  _552
REMARK  210  A    between atoms: _555  and  _557
REMARK  211  A    between atoms: _557  and  _558
REMARK  212  A    between atoms: _557  and  _560
REMARK  213  A    between atoms: _560  and  _561
REMARK  214  A    between atoms: _563  and  _565
REMARK  215  A    between atoms: _565  and  _566
REMARK  216  A    between atoms: _565  and  _568
REMARK  217  A    between atoms: _568  and  _569
REMARK  218  A    between atoms: _572  and  _574
REMARK  219  A    between atoms: _574  and  _575
REMARK  220  A    between atoms: _574  and  _577
REMARK  221  A    between atoms: _577  and  _578
REMARK  222  A    between atoms: _578  and  _579
REMARK  223  A    between atoms: _579  and  _580
REMARK  224  A    between atoms: _580  and  _581
REMARK  225  A    between atoms: _585  and  _587
REMARK  226  A    between atoms: _587  and  _588
REMARK  227  A    between atoms: _587  and  _590
REMARK  228  A    between atoms: _590  and  _591
REMARK  229  A    between atoms: _597  and  _599
REMARK  230  A    between atoms: _599  and  _600
REMARK  231  A    between atoms: _599  and  _602
REMARK  232  A    between atoms: _602  and  _603
REMARK  233  A    between atoms: _609  and  _611
REMARK  234  A    between atoms: _611  and  _612
REMARK  235  A    between atoms: _615  and  _617
REMARK  236  A    between atoms: _617  and  _618
REMARK  237  A    between atoms: _617  and  _620
REMARK  238  A    between atoms: _620  and  _621
REMARK  239  A    between atoms: _621  and  _622
REMARK  240  A    between atoms: _624  and  _626
REMARK  241  A    between atoms: _626  and  _627
REMARK  242  A    between atoms: _626  and  _629
REMARK  243  A    between atoms: _629  and  _630
REMARK  244  A    between atoms: _630  and  _631
REMARK  245  A    between atoms: _631  and  _632
REMARK  246  A    between atoms: _632  and  _633
REMARK  247  A    between atoms: _637  and  _639
REMARK  248  A    between atoms: _639  and  _640
REMARK  249  A    between atoms: _639  and  _642
REMARK  250  A    between atoms: _642  and  _643
REMARK  251  A    between atoms: _648  and  _649
REMARK  252  A    between atoms: _651  and  _653
REMARK  253  A    between atoms: _653  and  _654
REMARK  254  A    between atoms: _653  and  _656
REMARK  255  A    between atoms: _656  and  _657
REMARK  256  A    between atoms: _662  and  _664
REMARK  257  A    between atoms: _664  and  _665
REMARK  258  A    between atoms: _664  and  _667
REMARK  259  A    between atoms: _667  and  _668
REMARK  260  A    between atoms: _671  and  _673
REMARK  261  A    between atoms: _673  and  _674
REMARK  262  A    between atoms: _677  and  _679
REMARK  263  A    between atoms: _679  and  _680
REMARK  264  A    between atoms: _679  and  _682
REMARK  265  A    between atoms: _682  and  _683
REMARK  266  A    between atoms: _686  and  _688
REMARK  267  A    between atoms: _688  and  _689
REMARK  268  A    between atoms: _688  and  _691
REMARK  269  A    between atoms: _694  and  _696
REMARK  270  A    between atoms: _696  and  _697
REMARK  271  A    between atoms: _696  and  _699
REMARK  272  A    between atoms: _699  and  _700
REMARK  273  A    between atoms: _700  and  _701
REMARK  274  A    between atoms: _704  and  _706
REMARK  275  A    between atoms: _706  and  _707
REMARK  276  A    between atoms: _706  and  _709
REMARK  277  A    between atoms: _709  and  _710
REMARK  278  A    between atoms: _715  and  _716
REMARK  279  A    between atoms: _718  and  _720
REMARK  280  A    between atoms: _720  and  _721
REMARK  281  A    between atoms: _720  and  _723
REMARK  282  A    between atoms: _723  and  _724
REMARK  283  A    between atoms: _724  and  _725
REMARK  284  A    between atoms: _725  and  _726
REMARK  285  A    between atoms: _735  and  _737
REMARK  286  A    between atoms: _737  and  _738
REMARK  287  A    between atoms: _737  and  _740
REMARK  288  A    between atoms: _740  and  _741
REMARK  289  A    between atoms: _746  and  _747
REMARK  290  A    between atoms: _749  and  _751
REMARK  291  A    between atoms: _751  and  _752
REMARK  292  A    between atoms: _751  and  _754
REMARK  293  A    between atoms: _754  and  _755
REMARK  294  A    between atoms: _758  and  _760
REMARK  295  A    between atoms: _760  and  _761
REMARK  296  A    between atoms: _760  and  _763
REMARK  297  A    between atoms: _763  and  _764
REMARK  298  A    between atoms: _766  and  _768
REMARK  299  A    between atoms: _768  and  _769
REMARK  300  A    between atoms: _768  and  _771
REMARK  301  A    between atoms: _771  and  _772
REMARK  302  A    between atoms: _778  and  _780
REMARK  303  A    between atoms: _780  and  _781
REMARK  304  A    between atoms: _780  and  _783
REMARK  305  A    between atoms: _783  and  _784
REMARK  306  A    between atoms: _784  and  _785
REMARK                            x       y       z     vdW  Elec       q    Type
REMARK                         _______ _______ _______ _____ _____    ______ ____
ROOT
ATOM      1  CG  TYR A   1      19.409   4.786  24.191  0.00  0.00    -0.020 A 
ATOM      2  CD2 TYR A   1      20.577   4.048  23.984  0.00  0.00    -0.001 A 
ATOM      3  CE2 TYR A   1      21.277   4.105  22.778  0.00  0.00    +0.036 A 
ATOM      4  CZ  TYR A   1      20.833   4.924  21.771  0.00  0.00    +0.134 A 
ATOM      5  CE1 TYR A   1      19.678   5.695  21.953  0.00  0.00    +0.036 A 
ATOM      6  CD1 TYR A   1      18.987   5.634  23.166  0.00  0.00    -0.001 A 
ENDROOT
BRANCH   4   7
ATOM      7  OH  TYR A   1      21.550   4.970  20.583  0.00  0.00    -0.506 OA
ATOM      8  HH  TYR A   1      21.111   5.600  19.958  0.00  0.00    +0.292 HD
ENDBRANCH   4   7
BRANCH   1   9
ATOM      9  CB  TYR A   1      18.693   4.728  25.548  0.00  0.00    +0.051 C 
BRANCH   9  10
ATOM     10  CA  TYR A   1      17.148   4.631  25.568  0.00  0.00    +0.137 C 
BRANCH  10  11
ATOM     11  N   TYR A   1      16.677   3.378  24.952  0.00  0.00    -0.239 NA
ATOM     12  H   TYR A   1      16.941   3.155  23.971  0.00  0.00    +0.142 HD
ENDBRANCH  10  11
BRANCH  10  13
ATOM     13  C   TYR A   1      16.479   5.932  25.083  0.00  0.00    +0.224 C 
ATOM     14  O   TYR A   1      16.943   7.033  25.409  0.00  0.00    -0.287 OA
ENDBRANCH  10  13
ENDBRANCH   9  10
ENDBRANCH   1   9
TORSDOF 5
REMARK  Name = ../refined-set-2016/4ca7/4ca7_pocket.pdb
REMARK  306 active torsions:
REMARK  status: ('A' for Active; 'I' for Inactive)
REMARK    1  A    between atoms: _1  and  _3
REMARK    2  A    between atoms: _3  and  _4
REMARK    3  A    between atoms: _3  and  _6
REMARK    4  A    between atoms: _6  and  _7
REMARK    5  A    between atoms: _7  and  _8
REMARK    6  A    between atoms: _8  and  _9
REMARK    7  A    between atoms: _9  and  _10
REMARK    8  A    between atoms: _14  and  _16
REMARK    9  A    between atoms: _16  and  _17
REMARK   10  A    between atoms: _16  and  _19
REMARK   11  A    between atoms: _19  and  _20
REMARK   12  A    between atoms: _20  and  _21
REMARK   13  A    between atoms: _24  and  _26
REMARK   14  A    between atoms: _26  and  _27
REMARK   15  A    between atoms: _26  and  _29
REMARK   16  A    between atoms: _29  and  _30
REMARK   17  A    between atoms: _30  and  _31
REMARK   18  A    between atoms: _34  and  _36
REMARK   19  A    between atoms: _36  and  _37
REMARK   20  A    between atoms: _36  and  _39
REMARK   21  A    between atoms: _39  and  _40
REMARK   22  A    between atoms: _45  and  _47
REMARK   23  A    between atoms: _47  and  _48
REMARK   24  A    between atoms: _47  and  _50
REMARK   25  A    between atoms: _50  and  _51
REMARK   26  A    between atoms: _61  and  _63
REMARK   27  A    between atoms: _63  and  _64
REMARK   28  A    between atoms: _63  and  _66
REMARK   29  A    between atoms: _66  and  _67
REMARK   30  A    between atoms: _67  and  _68
REMARK   31  A    between atoms: _73  and  _75
REMARK   32  A    between atoms: _75  and  _76
REMARK   33  A    between atoms: _75  and  _78
REMARK   34  A    between atoms: _78  and  _79
REMARK   35  A    between atoms: _79  and  _80
REMARK   36  A    between atoms: _85  and  _87
REMARK   37  A    between atoms: _87  and  _88
REMARK   38  A    between atoms: _87  and  _90
REMARK   39  A    between atoms: _90  and  _91
REMARK   40  A    between atoms: _93  and  _95
REMARK   41  A    between atoms: _95  and  _96
REMARK   42  A    between atoms: _95  and  _98
REMARK   43  A    between atoms: _101  and  _103
REMARK   44  A    between atoms: _103  and  _104
REMARK   45  A    between atoms: _103  and  _106
REMARK   46  A    between atoms: _108  and  _110
REMARK   47  A    between atoms: _110  and  _111
REMARK   48  A    between atoms: _110  and  _113
REMARK   49  A    between atoms: _113  and  _114
REMARK   50  A    between atoms: _119  and  _121
REMARK   51  A    between atoms: _121  and  _122
REMARK   52  A    between atoms: _125  and  _127
REMARK   53  A    between atoms: _127  and  _128
REMARK   54  A    between atoms: _127  and  _130
REMARK   55  A    between atoms: _130  and  _131
REMARK   56  A    between atoms: _133  and  _135
REMARK   57  A    between atoms: _135  and  _136
REMARK   58  A    between atoms: _139  and  _141
REMARK   59  A    between atoms: _141  and  _142
REMARK   60  A    between atoms: _141  and  _144
REMARK   61  A    between atoms: _144  and  _145
REMARK   62  A    between atoms: _155  and  _157
REMARK   63  A    between atoms: _157  and  _158
REMARK   64  A    between atoms: _157  and  _160
REMARK   65  A    between atoms: _160  and  _161
REMARK   66  A    between atoms: _164  and  _166
REMARK   67  A    between atoms: _166  and  _167
REMARK   68  A    between atoms: _166  and  _169
REMARK   69  A    between atoms: _169  and  _170
REMARK   70  A    between atoms: _175  and  _176
REMARK   71  A    between atoms: _178  and  _180
REMARK   72  A    between atoms: _180  and  _181
REMARK   73  A    between atoms: _180  and  _183
REMARK   74  A    between atoms: _183  and  _184
REMARK   75  A    between atoms: _184  and  _185
REMARK   76  A    between atoms: _185  and  _186
REMARK   77  A    between atoms: _195  and  _197
REMARK   78  A    between atoms: _197  and  _198
REMARK   79  A    between atoms: _197  and  _200
REMARK   80  A    between atoms: _200  and  _201
REMARK   81  A    between atoms: _204  and  _206
REMARK   82  A    between atoms: _206  and  _207
REMARK   83  A    between atoms: _206  and  _209
REMARK   84  A    between atoms: _209  and  _210
REMARK   85  A    between atoms: _210  and  _211
REMARK   86  A    between atoms: _211  and  _212
REMARK   87  A    between atoms: _212  and  _213
REMARK   88  A    between atoms: _217  and  _219
REMARK   89  A    between atoms: _219  and  _220
REMARK   90  A    between atoms: _219  and  _222
REMARK   91  A    between atoms: _222  and  _223
REMARK   92  A    between atoms: _223  and  _224
REMARK   93  A    between atoms: _229  and  _231
REMARK   94  A    between atoms: _231  and  _232
REMARK   95  A    between atoms: _231  and  _234
REMARK   96  A    between atoms: _234  and  _235
REMARK   97  A    between atoms: _235  and  _236
REMARK   98  A    between atoms: _236  and  _237
REMARK   99  A    between atoms: _246  and  _248
REMARK  100  A    between atoms: _248  and  _249
REMARK  101  A    between atoms: _248  and  _251
REMARK  102  A    between atoms: _251  and  _252
REMARK  103  A    between atoms: _252  and  _253
REMARK  104  A    between atoms: _258  and  _260
REMARK  105  A    between atoms: _260  and  _261
REMARK  106  A    between atoms: _260  and  _263
REMARK  107  A    between atoms: _263  and  _264
REMARK  108  A    between atoms: _267  and  _269
REMARK  109  A    between atoms: _269  and  _270
REMARK  110  A    between atoms: _269  and  _272
REMARK  111  A    between atoms: _272  and  _273
REMARK  112  A    between atoms: _273  and  _274
REMARK  113  A    between atoms: _279  and  _281
REMARK  114  A    between atoms: _281  and  _282
REMARK  115  A    between atoms: _281  and  _284
REMARK  116  A    between atoms: _284  and  _285
REMARK  117  A    between atoms: _288  and  _290
REMARK  118  A    between atoms: _290  and  _291
REMARK  119  A    between atoms: _290  and  _293
REMARK  120  A    between atoms: _293  and  _294
REMARK  121  A    between atoms: _300  and  _302
REMARK  122  A    between atoms: _302  and  _303
REMARK  123  A    between atoms: _302  and  _305
REMARK  124  A    between atoms: _305  and  _306
REMARK  125  A    between atoms: _309  and  _311
REMARK  126  A    between atoms: _311  and  _312
REMARK  127  A    between atoms: _311  and  _314
REMARK  128  A    between atoms: _317  and  _319
REMARK  129  A    between atoms: _319  and  _320
REMARK  130  A    between atoms: _319  and  _322
REMARK  131  A    between atoms: _322  and  _323
REMARK  132  A    between atoms: _328  and  _330
REMARK  133  A    between atoms: _341  and  _344
REMARK  134  A    between atoms: _344  and  _345
REMARK  135  A    between atoms: _345  and  _346
REMARK  136  A    between atoms: _351  and  _354
REMARK  137  A    between atoms: _354  and  _355
REMARK  138  A    between atoms: _365  and  _366
REMARK  139  A    between atoms: _374  and  _376
REMARK  140  A    between atoms: _376  and  _377
REMARK  141  A    between atoms: _376  and  _379
REMARK  142  A    between atoms: _379  and  _380
REMARK  143  A    between atoms: _383  and  _385
REMARK  144  A    between atoms: _385  and  _386
REMARK  145  A    between atoms: _385  and  _388
REMARK  146  A    between atoms: _388  and  _389
REMARK  147  A    between atoms: _394  and  _395
REMARK  148  A    between atoms: _397  and  _399
REMARK  149  A    between atoms: _399  and  _400
REMARK  150  A    between atoms: _399  and  _402
REMARK  151  A    between atoms: _402  and  _403
REMARK  152  A    between atoms: _409  and  _411
REMARK  153  A    between atoms: _411  and  _412
REMARK  154  A    between atoms: _411  and  _414
REMARK  155  A    between atoms: _414  and  _415
REMARK  156  A    between atoms: _420  and  _421
REMARK  157  A    between atoms: _423  and  _425
REMARK  158  A    between atoms: _425  and  _426
REMARK  159  A    between atoms: _425  and  _428
REMARK  160  A    between atoms: _428  and  _429
REMARK  161  A    between atoms: _429  and  _430
REMARK  162  A    between atoms: _430  and  _431
REMARK  163  A    between atoms: _440  and  _442
REMARK  164  A    between atoms: _442  and  _443
REMARK  165  A    between atoms: _442  and  _445
REMARK  166  A    between atoms: _445  and  _446
REMARK  167  A    between atoms: _449  and  _451
REMARK  168  A    between atoms: _451  and  _452
REMARK  169  A    between atoms: _454  and  _456
REMARK  170  A    between atoms: _456  and  _457
REMARK  171  A    between atoms: _456  and  _459
REMARK  172  A    between atoms: _459  and  _460
REMARK  173  A    between atoms: _466  and  _467
REMARK  174  A    between atoms: _472  and  _474
REMARK  175  A    between atoms: _474  and  _475
REMARK  176  A    between atoms: _477  and  _479
REMARK  177  A    between atoms: _479  and  _480
REMARK  178  A    between atoms: _479  and  _482
REMARK  179  A    between atoms: _482  and  _483
REMARK  180  A    between atoms: _489  and  _491
REMARK  181  A    between atoms: _491  and  _492
REMARK  182  A    between atoms: _491  and  _494
REMARK  183  A    between atoms: _494  and  _495
REMARK  184  A    between atoms: _500  and  _502
REMARK  185  A    between atoms: _502  and  _503
REMARK  186  A    between atoms: _502  and  _505
REMARK  187  A    between atoms: _505  and  _506
REMARK  188  A    between atoms: _506  and  _507
REMARK  189  A    between atoms: _507  and  _508
REMARK  190  A    between atoms: _508  and  ZN_790
REMARK  191  A    between atoms: _510  and  _512
REMARK  192  A    between atoms: _512  and  _513
REMARK  193  A    between atoms: _516  and  _518
REMARK  194  A    between atoms: _518  and  _519
REMARK  195  A    between atoms: _521  and  _523
REMARK  196  A    between atoms: _523  and  _524
REMARK  197  A    between atoms: _523  and  _526
REMARK  198  A    between atoms: _526  and  _527
REMARK  199  A    between atoms: _530  and  _532
REMARK  200  A    between atoms: _532  and  _533
REMARK  201  A    between atoms: _532  and  _535
REMARK  202  A    between atoms: _538  and  _540
REMARK  203  A    between atoms: _540  and  _541
REMARK  204  A    between atoms: _540  and  _543
REMARK  205  A    between atoms: _543  and  _544
REMARK  206  A    between atoms: _546  and  _548
REMARK  207  A    between atoms: _548  and  _549
REMARK  208  A    between atoms: _548  and  _551
REMARK  209  A    between atoms: _551  and  _552
REMARK  210  A    between atoms: _555  and  _557
REMARK  211  A    between atoms: _557  and  _558
REMARK  212  A    between atoms: _557  and  _560
REMARK  213  A    between atoms: _560  and  _561
REMARK  214  A    between atoms: _563  and  _565
REMARK  215  A    between atoms: _565  and  _566
REMARK  216  A    between atoms: _565  and  _568
REMARK  217  A    between atoms: _568  and  _569
REMARK  218  A    between atoms: _572  and  _574
REMARK  219  A    between atoms: _574  and  _575
REMARK  220  A    between atoms: _574  and  _577
REMARK  221  A    between atoms: _577  and  _578
REMARK  222  A    between atoms: _578  and  _579
REMARK  223  A    between atoms: _579  and  _580
REMARK  224  A    between atoms: _580  and  _581
REMARK  225  A    between atoms: _585  and  _587
REMARK  226  A    between atoms: _587  and  _588
REMARK  227  A    between atoms: _587  and  _590
REMARK  228  A    between atoms: _590  and  _591
REMARK  229  A    between atoms: _597  and  _599
REMARK  230  A    between atoms: _599  and  _600
REMARK  231  A    between atoms: _599  and  _602
REMARK  232  A    between atoms: _602  and  _603
REMARK  233  A    between atoms: _609  and  _611
REMARK  234  A    between atoms: _611  and  _612
REMARK  235  A    between atoms: _615  and  _617
REMARK  236  A    between atoms: _617  and  _618
REMARK  237  A    between atoms: _617  and  _620
REMARK  238  A    between atoms: _620  and  _621
REMARK  239  A    between atoms: _621  and  _622
REMARK  240  A    between atoms: _624  and  _626
REMARK  241  A    between atoms: _626  and  _627
REMARK  242  A    between atoms: _626  and  _629
REMARK  243  A    between atoms: _629  and  _630
REMARK  244  A    between atoms: _630  and  _631
REMARK  245  A    between atoms: _631  and  _632
REMARK  246  A    between atoms: _632  and  _633
REMARK  247  A    between atoms: _637  and  _639
REMARK  248  A    between atoms: _639  and  _640
REMARK  249  A    between atoms: _639  and  _642
REMARK  250  A    between atoms: _642  and  _643
REMARK  251  A    between atoms: _648  and  _649
REMARK  252  A    between atoms: _651  and  _653
REMARK  253  A    between atoms: _653  and  _654
REMARK  254  A    between atoms: _653  and  _656
REMARK  255  A    between atoms: _656  and  _657
REMARK  256  A    between atoms: _662  and  _664
REMARK  257  A    between atoms: _664  and  _665
REMARK  258  A    between atoms: _664  and  _667
REMARK  259  A    between atoms: _667  and  _668
REMARK  260  A    between atoms: _671  and  _673
REMARK  261  A    between atoms: _673  and  _674
REMARK  262  A    between atoms: _677  and  _679
REMARK  263  A    between atoms: _679  and  _680
REMARK  264  A    between atoms: _679  and  _682
REMARK  265  A    between atoms: _682  and  _683
REMARK  266  A    between atoms: _686  and  _688
REMARK  267  A    between atoms: _688  and  _689
REMARK  268  A    between atoms: _688  and  _691
REMARK  269  A    between atoms: _694  and  _696
REMARK  270  A    between atoms: _696  and  _697
REMARK  271  A    between atoms: _696  and  _699
REMARK  272  A    between atoms: _699  and  _700
REMARK  273  A    between atoms: _700  and  _701
REMARK  274  A    between atoms: _704  and  _706
REMARK  275  A    between atoms: _706  and  _707
REMARK  276  A    between atoms: _706  and  _709
REMARK  277  A    between atoms: _709  and  _710
REMARK  278  A    between atoms: _715  and  _716
REMARK  279  A    between atoms: _718  and  _720
REMARK  280  A    between atoms: _720  and  _721
REMARK  281  A    between atoms: _720  and  _723
REMARK  282  A    between atoms: _723  and  _724
REMARK  283  A    between atoms: _724  and  _725
REMARK  284  A    between atoms: _725  and  _726
REMARK  285  A    between atoms: _735  and  _737
REMARK  286  A    between atoms: _737  and  _738
REMARK  287  A    between atoms: _737  and  _740
REMARK  288  A    between atoms: _740  and  _741
REMARK  289  A    between atoms: _746  and  _747
REMARK  290  A    between atoms: _749  and  _751
REMARK  291  A    between atoms: _751  and  _752
REMARK  292  A    between atoms: _751  and  _754
REMARK  293  A    between atoms: _754  and  _755
REMARK  294  A    between atoms: _758  and  _760
REMARK  295  A    between atoms: _760  and  _761
REMARK  296  A    between atoms: _760  and  _763
REMARK  297  A    between atoms: _763  and  _764
REMARK  298  A    between atoms: _766  and  _768
REMARK  299  A    between atoms: _768  and  _769
REMARK  300  A    between atoms: _768  and  _771
REMARK  301  A    between atoms: _771  and  _772
REMARK  302  A    between atoms: _778  and  _780
REMARK  303  A    between atoms: _780  and  _781
REMARK  304  A    between atoms: _780  and  _783
REMARK  305  A    between atoms: _783  and  _784
REMARK  306  A    between atoms: _784  and  _785
REMARK                            x       y       z     vdW  Elec       q    Type
REMARK                         _______ _______ _______ _____ _____    ______ ____
ROOT
ATOM      1  C   ARG A   1      21.895   8.127  22.676  0.00  0.00    +0.238 C 
ATOM      2  N   THR A   2      22.791   7.300  23.211  0.00  0.00    -0.295 N 
ATOM      3  H   THR A   2      22.736   7.109  24.232  0.00  0.00    +0.150 HD
ATOM      4  O   ARG A   1      21.906   8.461  21.483  0.00  0.00    -0.274 OA
ENDROOT
BRANCH   1   5
ATOM      5  CA  ARG A   1      20.834   8.658  23.651  0.00  0.00    +0.145 C 
BRANCH   5   6
ATOM      6  N   ARG A   1      21.425   9.556  24.649  0.00  0.00    -0.238 NA
ATOM      7  H   ARG A   1      21.383  10.584  24.499  0.00  0.00    +0.142 HD
ENDBRANCH   5   6
BRANCH   5   8
ATOM      8  CB  ARG A   1      19.656   9.328  22.924  0.00  0.00    +0.030 C 
BRANCH   8   9
ATOM      9  CG  ARG A   1      18.453   9.591  23.819  0.00  0.00    +0.045 C 
BRANCH   9  10
ATOM     10  CD  ARG A   1      17.375  10.426  23.132  0.00  0.00    +0.174 C 
BRANCH  10  11
ATOM     11  NE  ARG A   1      16.655   9.666  22.108  0.00  0.00    -0.265 N 
ATOM     12  HE  ARG A   1      17.016   8.721  21.865  0.00  0.00    +0.259 HD
ATOM     13  CZ  ARG A   1      15.570  10.098  21.465  0.00  0.00    +0.342 C 
ATOM     14  NH2 ARG A   1      15.060  11.300  21.743  0.00  0.00    -0.292 N 
ATOM     15 HH21 ARG A   1      15.509  11.902  22.463  0.00  0.00    +0.255 HD
ATOM     16 HH22 ARG A   1      14.214  11.635  21.240  0.00  0.00    +0.255 HD
ATOM     17  NH1 ARG A   1      14.991   9.328  20.540  0.00  0.00    -0.292 N 
ATOM     18 HH11 ARG A   1      15.387   8.391  20.321  0.00  0.00    +0.255 HD
ATOM     19 HH12 ARG A   1      14.145   9.665  20.038  0.00  0.00    +0.255 HD
ENDBRANCH  10  11
ENDBRANCH   9  10
ENDBRANCH   8   9
ENDBRANCH   5   8
ENDBRANCH   1   5
BRANCH   2  20
ATOM     20  CA  THR A   2      23.852   6.643  22.439  0.00  0.00    +0.176 C 
BRANCH  20  21
ATOM     21  C   THR A   2      24.349   5.457  23.270  0.00  0.00    +0.243 C 
ATOM     22  O   THR A   2      23.912   5.291  24.398  0.00  0.00    -0.273 OA
ATOM     23  N   GLY A   3      25.243   4.630  22.726  0.00  0.00    -0.296 N 
ATOM     24  H   GLY A   3      25.598   4.818  21.767  0.00  0.00    +0.150 HD
BRANCH  23  25
ATOM     25  CA  GLY A   3      25.736   3.453  23.464  0.00  0.00    +0.163 C 
BRANCH  25  26
ATOM     26  C   GLY A   3      26.574   3.794  24.688  0.00  0.00    +0.229 C 
ATOM     27  O   GLY A   3      27.189   4.871  24.756  0.00  0.00    -0.286 OA
ENDBRANCH  25  26
ENDBRANCH  23  25
ENDBRANCH  20  21
BRANCH  20  28
ATOM     28  CB  THR A   2      25.000   7.615  22.064  0.00  0.00    +0.137 C 
ATOM     29  CG2 THR A   2      25.847   7.983  23.277  0.00  0.00    +0.034 C 
BRANCH  28  30
ATOM     30  OG1 THR A   2      25.834   7.000  21.083  0.00  0.00    -0.382 OA
ATOM     31  HG1 THR A   2      26.568   7.618  20.841  0.00  0.00    +0.210 HD
ENDBRANCH  28  30
ENDBRANCH  20  28
ENDBRANCH   2  20
TORSDOF 12
REMARK  Name = ../refined-set-2016/4ca7/4ca7_pocket.pdb
REMARK  306 active torsions:
REMARK  status: ('A' for Active; 'I' for Inactive)
REMARK    1  A    between atoms: _1  and  _3
REMARK    2  A    between atoms: _3  and  _4
REMARK    3  A    between atoms: _3  and  _6
REMARK    4  A    between atoms: _6  and  _7
REMARK    5  A    between atoms: _7  and  _8
REMARK    6  A    between atoms: _8  and  _9
REMARK    7  A    between atoms: _9  and  _10
REMARK    8  A    between atoms: _14  and  _16
REMARK    9  A    between atoms: _16  and  _17
REMARK   10  A    between atoms: _16  and  _19
REMARK   11  A    between atoms: _19  and  _20
REMARK   12  A    between atoms: _20  and  _21
REMARK   13  A    between atoms: _24  and  _26
REMARK   14  A    between atoms: _26  and  _27
REMARK   15  A    between atoms: _26  and  _29
REMARK   16  A    between atoms: _29  and  _30
REMARK   17  A    between atoms: _30  and  _31
REMARK   18  A    between atoms: _34  and  _36
REMARK   19  A    between atoms: _36  and  _37
REMARK   20  A    between atoms: _36  and  _39
REMARK   21  A    between atoms: _39  and  _40
REMARK   22  A    between atoms: _45  and  _47
REMARK   23  A    between atoms: _47  and  _48
REMARK   24  A    between atoms: _47  and  _50
REMARK   25  A    between atoms: _50  and  _51
REMARK   26  A    between atoms: _61  and  _63
REMARK   27  A    between atoms: _63  and  _64
REMARK   28  A    between atoms: _63  and  _66
REMARK   29  A    between atoms: _66  and  _67
REMARK   30  A    between atoms: _67  and  _68
REMARK   31  A    between atoms: _73  and  _75
REMARK   32  A    between atoms: _75  and  _76
REMARK   33  A    between atoms: _75  and  _78
REMARK   34  A    between atoms: _78  and  _79
REMARK   35  A    between atoms: _79  and  _80
REMARK   36  A    between atoms: _85  and  _87
REMARK   37  A    between atoms: _87  and  _88
REMARK   38  A    between atoms: _87  and  _90
REMARK   39  A    between atoms: _90  and  _91
REMARK   40  A    between atoms: _93  and  _95
REMARK   41  A    between atoms: _95  and  _96
REMARK   42  A    between atoms: _95  and  _98
REMARK   43  A    between atoms: _101  and  _103
REMARK   44  A    between atoms: _103  and  _104
REMARK   45  A    between atoms: _103  and  _106
REMARK   46  A    between atoms: _108  and  _110
REMARK   47  A    between atoms: _110  and  _111
REMARK   48  A    between atoms: _110  and  _113
REMARK   49  A    between atoms: _113  and  _114
REMARK   50  A    between atoms: _119  and  _121
REMARK   51  A    between atoms: _121  and  _122
REMARK   52  A    between atoms: _125  and  _127
REMARK   53  A    between atoms: _127  and  _128
REMARK   54  A    between atoms: _127  and  _130
REMARK   55  A    between atoms: _130  and  _131
REMARK   56  A    between atoms: _133  and  _135
REMARK   57  A    between atoms: _135  and  _136
REMARK   58  A    between atoms: _139  and  _141
REMARK   59  A    between atoms: _141  and  _142
REMARK   60  A    between atoms: _141  and  _144
REMARK   61  A    between atoms: _144  and  _145
REMARK   62  A    between atoms: _155  and  _157
REMARK   63  A    between atoms: _157  and  _158
REMARK   64  A    between atoms: _157  and  _160
REMARK   65  A    between atoms: _160  and  _161
REMARK   66  A    between atoms: _164  and  _166
REMARK   67  A    between atoms: _166  and  _167
REMARK   68  A    between atoms: _166  and  _169
REMARK   69  A    between atoms: _169  and  _170
REMARK   70  A    between atoms: _175  and  _176
REMARK   71  A    between atoms: _178  and  _180
REMARK   72  A    between atoms: _180  and  _181
REMARK   73  A    between atoms: _180  and  _183
REMARK   74  A    between atoms: _183  and  _184
REMARK   75  A    between atoms: _184  and  _185
REMARK   76  A    between atoms: _185  and  _186
REMARK   77  A    between atoms: _195  and  _197
REMARK   78  A    between atoms: _197  and  _198
REMARK   79  A    between atoms: _197  and  _200
REMARK   80  A    between atoms: _200  and  _201
REMARK   81  A    between atoms: _204  and  _206
REMARK   82  A    between atoms: _206  and  _207
REMARK   83  A    between atoms: _206  and  _209
REMARK   84  A    between atoms: _209  and  _210
REMARK   85  A    between atoms: _210  and  _211
REMARK   86  A    between atoms: _211  and  _212
REMARK   87  A    between atoms: _212  and  _213
REMARK   88  A    between atoms: _217  and  _219
REMARK   89  A    between atoms: _219  and  _220
REMARK   90  A    between atoms: _219  and  _222
REMARK   91  A    between atoms: _222  and  _223
REMARK   92  A    between atoms: _223  and  _224
REMARK   93  A    between atoms: _229  and  _231
REMARK   94  A    between atoms: _231  and  _232
REMARK   95  A    between atoms: _231  and  _234
REMARK   96  A    between atoms: _234  and  _235
REMARK   97  A    between atoms: _235  and  _236
REMARK   98  A    between atoms: _236  and  _237
REMARK   99  A    between atoms: _246  and  _248
REMARK  100  A    between atoms: _248  and  _249
REMARK  101  A    between atoms: _248  and  _251
REMARK  102  A    between atoms: _251  and  _252
REMARK  103  A    between atoms: _252  and  _253
REMARK  104  A    between atoms: _258  and  _260
REMARK  105  A    between atoms: _260  and  _261
REMARK  106  A    between atoms: _260  and  _263
REMARK  107  A    between atoms: _263  and  _264
REMARK  108  A    between atoms: _267  and  _269
REMARK  109  A    between atoms: _269  and  _270
REMARK  110  A    between atoms: _269  and  _272
REMARK  111  A    between atoms: _272  and  _273
REMARK  112  A    between atoms: _273  and  _274
REMARK  113  A    between atoms: _279  and  _281
REMARK  114  A    between atoms: _281  and  _282
REMARK  115  A    between atoms: _281  and  _284
REMARK  116  A    between atoms: _284  and  _285
REMARK  117  A    between atoms: _288  and  _290
REMARK  118  A    between atoms: _290  and  _291
REMARK  119  A    between atoms: _290  and  _293
REMARK  120  A    between atoms: _293  and  _294
REMARK  121  A    between atoms: _300  and  _302
REMARK  122  A    between atoms: _302  and  _303
REMARK  123  A    between atoms: _302  and  _305
REMARK  124  A    between atoms: _305  and  _306
REMARK  125  A    between atoms: _309  and  _311
REMARK  126  A    between atoms: _311  and  _312
REMARK  127  A    between atoms: _311  and  _314
REMARK  128  A    between atoms: _317  and  _319
REMARK  129  A    between atoms: _319  and  _320
REMARK  130  A    between atoms: _319  and  _322
REMARK  131  A    between atoms: _322  and  _323
REMARK  132  A    between atoms: _328  and  _330
REMARK  133  A    between atoms: _341  and  _344
REMARK  134  A    between atoms: _344  and  _345
REMARK  135  A    between atoms: _345  and  _346
REMARK  136  A    between atoms: _351  and  _354
REMARK  137  A    between atoms: _354  and  _355
REMARK  138  A    between atoms: _365  and  _366
REMARK  139  A    between atoms: _374  and  _376
REMARK  140  A    between atoms: _376  and  _377
REMARK  141  A    between atoms: _376  and  _379
REMARK  142  A    between atoms: _379  and  _380
REMARK  143  A    between atoms: _383  and  _385
REMARK  144  A    between atoms: _385  and  _386
REMARK  145  A    between atoms: _385  and  _388
REMARK  146  A    between atoms: _388  and  _389
REMARK  147  A    between atoms: _394  and  _395
REMARK  148  A    between atoms: _397  and  _399
REMARK  149  A    between atoms: _399  and  _400
REMARK  150  A    between atoms: _399  and  _402
REMARK  151  A    between atoms: _402  and  _403
REMARK  152  A    between atoms: _409  and  _411
REMARK  153  A    between atoms: _411  and  _412
REMARK  154  A    between atoms: _411  and  _414
REMARK  155  A    between atoms: _414  and  _415
REMARK  156  A    between atoms: _420  and  _421
REMARK  157  A    between atoms: _423  and  _425
REMARK  158  A    between atoms: _425  and  _426
REMARK  159  A    between atoms: _425  and  _428
REMARK  160  A    between atoms: _428  and  _429
REMARK  161  A    between atoms: _429  and  _430
REMARK  162  A    between atoms: _430  and  _431
REMARK  163  A    between atoms: _440  and  _442
REMARK  164  A    between atoms: _442  and  _443
REMARK  165  A    between atoms: _442  and  _445
REMARK  166  A    between atoms: _445  and  _446
REMARK  167  A    between atoms: _449  and  _451
REMARK  168  A    between atoms: _451  and  _452
REMARK  169  A    between atoms: _454  and  _456
REMARK  170  A    between atoms: _456  and  _457
REMARK  171  A    between atoms: _456  and  _459
REMARK  172  A    between atoms: _459  and  _460
REMARK  173  A    between atoms: _466  and  _467
REMARK  174  A    between atoms: _472  and  _474
REMARK  175  A    between atoms: _474  and  _475
REMARK  176  A    between atoms: _477  and  _479
REMARK  177  A    between atoms: _479  and  _480
REMARK  178  A    between atoms: _479  and  _482
REMARK  179  A    between atoms: _482  and  _483
REMARK  180  A    between atoms: _489  and  _491
REMARK  181  A    between atoms: _491  and  _492
REMARK  182  A    between atoms: _491  and  _494
REMARK  183  A    between atoms: _494  and  _495
REMARK  184  A    between atoms: _500  and  _502
REMARK  185  A    between atoms: _502  and  _503
REMARK  186  A    between atoms: _502  and  _505
REMARK  187  A    between atoms: _505  and  _506
REMARK  188  A    between atoms: _506  and  _507
REMARK  189  A    between atoms: _507  and  _508
REMARK  190  A    between atoms: _508  and  ZN_790
REMARK  191  A    between atoms: _510  and  _512
REMARK  192  A    between atoms: _512  and  _513
REMARK  193  A    between atoms: _516  and  _518
REMARK  194  A    between atoms: _518  and  _519
REMARK  195  A    between atoms: _521  and  _523
REMARK  196  A    between atoms: _523  and  _524
REMARK  197  A    between atoms: _523  and  _526
REMARK  198  A    between atoms: _526  and  _527
REMARK  199  A    between atoms: _530  and  _532
REMARK  200  A    between atoms: _532  and  _533
REMARK  201  A    between atoms: _532  and  _535
REMARK  202  A    between atoms: _538  and  _540
REMARK  203  A    between atoms: _540  and  _541
REMARK  204  A    between atoms: _540  and  _543
REMARK  205  A    between atoms: _543  and  _544
REMARK  206  A    between atoms: _546  and  _548
REMARK  207  A    between atoms: _548  and  _549
REMARK  208  A    between atoms: _548  and  _551
REMARK  209  A    between atoms: _551  and  _552
REMARK  210  A    between atoms: _555  and  _557
REMARK  211  A    between atoms: _557  and  _558
REMARK  212  A    between atoms: _557  and  _560
REMARK  213  A    between atoms: _560  and  _561
REMARK  214  A    between atoms: _563  and  _565
REMARK  215  A    between atoms: _565  and  _566
REMARK  216  A    between atoms: _565  and  _568
REMARK  217  A    between atoms: _568  and  _569
REMARK  218  A    between atoms: _572  and  _574
REMARK  219  A    between atoms: _574  and  _575
REMARK  220  A    between atoms: _574  and  _577
REMARK  221  A    between atoms: _577  and  _578
REMARK  222  A    between atoms: _578  and  _579
REMARK  223  A    between atoms: _579  and  _580
REMARK  224  A    between atoms: _580  and  _581
REMARK  225  A    between atoms: _585  and  _587
REMARK  226  A    between atoms: _587  and  _588
REMARK  227  A    between atoms: _587  and  _590
REMARK  228  A    between atoms: _590  and  _591
REMARK  229  A    between atoms: _597  and  _599
REMARK  230  A    between atoms: _599  and  _600
REMARK  231  A    between atoms: _599  and  _602
REMARK  232  A    between atoms: _602  and  _603
REMARK  233  A    between atoms: _609  and  _611
REMARK  234  A    between atoms: _611  and  _612
REMARK  235  A    between atoms: _615  and  _617
REMARK  236  A    between atoms: _617  and  _618
REMARK  237  A    between atoms: _617  and  _620
REMARK  238  A    between atoms: _620  and  _621
REMARK  239  A    between atoms: _621  and  _622
REMARK  240  A    between atoms: _624  and  _626
REMARK  241  A    between atoms: _626  and  _627
REMARK  242  A    between atoms: _626  and  _629
REMARK  243  A    between atoms: _629  and  _630
REMARK  244  A    between atoms: _630  and  _631
REMARK  245  A    between atoms: _631  and  _632
REMARK  246  A    between atoms: _632  and  _633
REMARK  247  A    between atoms: _637  and  _639
REMARK  248  A    between atoms: _639  and  _640
REMARK  249  A    between atoms: _639  and  _642
REMARK  250  A    between atoms: _642  and  _643
REMARK  251  A    between atoms: _648  and  _649
REMARK  252  A    between atoms: _651  and  _653
REMARK  253  A    between atoms: _653  and  _654
REMARK  254  A    between atoms: _653  and  _656
REMARK  255  A    between atoms: _656  and  _657
REMARK  256  A    between atoms: _662  and  _664
REMARK  257  A    between atoms: _664  and  _665
REMARK  258  A    between atoms: _664  and  _667
REMARK  259  A    between atoms: _667  and  _668
REMARK  260  A    between atoms: _671  and  _673
REMARK  261  A    between atoms: _673  and  _674
REMARK  262  A    between atoms: _677  and  _679
REMARK  263  A    between atoms: _679  and  _680
REMARK  264  A    between atoms: _679  and  _682
REMARK  265  A    between atoms: _682  and  _683
REMARK  266  A    between atoms: _686  and  _688
REMARK  267  A    between atoms: _688  and  _689
REMARK  268  A    between atoms: _688  and  _691
REMARK  269  A    between atoms: _694  and  _696
REMARK  270  A    between atoms: _696  and  _697
REMARK  271  A    between atoms: _696  and  _699
REMARK  272  A    between atoms: _699  and  _700
REMARK  273  A    between atoms: _700  and  _701
REMARK  274  A    between atoms: _704  and  _706
REMARK  275  A    between atoms: _706  and  _707
REMARK  276  A    between atoms: _706  and  _709
REMARK  277  A    between atoms: _709  and  _710
REMARK  278  A    between atoms: _715  and  _716
REMARK  279  A    between atoms: _718  and  _720
REMARK  280  A    between atoms: _720  and  _721
REMARK  281  A    between atoms: _720  and  _723
REMARK  282  A    between atoms: _723  and  _724
REMARK  283  A    between atoms: _724  and  _725
REMARK  284  A    between atoms: _725  and  _726
REMARK  285  A    between atoms: _735  and  _737
REMARK  286  A    between atoms: _737  and  _738
REMARK  287  A    between atoms: _737  and  _740
REMARK  288  A    between atoms: _740  and  _741
REMARK  289  A    between atoms: _746  and  _747
REMARK  290  A    between atoms: _749  and  _751
REMARK  291  A    between atoms: _751  and  _752
REMARK  292  A    between atoms: _751  and  _754
REMARK  293  A    between atoms: _754  and  _755
REMARK  294  A    between atoms: _758  and  _760
REMARK  295  A    between atoms: _760  and  _761
REMARK  296  A    between atoms: _760  and  _763
REMARK  297  A    between atoms: _763  and  _764
REMARK  298  A    between atoms: _766  and  _768
REMARK  299  A    between atoms: _768  and  _769
REMARK  300  A    between atoms: _768  and  _771
REMARK  301  A    between atoms: _771  and  _772
REMARK  302  A    between atoms: _778  and  _780
REMARK  303  A    between atoms: _780  and  _781
REMARK  304  A    between atoms: _780  and  _783
REMARK  305  A    between atoms: _783  and  _784
REMARK  306  A    between atoms: _784  and  _785
REMARK                            x       y       z     vdW  Elec       q    Type
REMARK                         _______ _______ _______ _____ _____    ______ ____
ROOT
ATOM      1  CA  ASP A   2      25.596 -10.195  17.695  0.00  0.00    +0.160 C 
ENDROOT
BRANCH   1   3
ATOM      2  C   GLY A   1      23.366  -9.168  17.626  0.00  0.00    +0.240 C 
ATOM      3  N   ASP A   2      24.678  -9.052  17.817  0.00  0.00    -0.297 N 
ATOM      4  H   ASP A   2      25.068  -8.120  18.061  0.00  0.00    +0.150 HD
ATOM      5  O   GLY A   1      22.826 -10.224  17.289  0.00  0.00    -0.274 OA
BRANCH   2   6
ATOM      6  CA  GLY A   1      22.533  -7.915  17.848  0.00  0.00    +0.169 C 
BRANCH   6   7
ATOM      7  N   GLY A   1      23.075  -7.008  18.856  0.00  0.00    -0.236 NA
ATOM      8  H   GLY A   1      23.418  -6.074  18.554  0.00  0.00    +0.142 HD
ENDBRANCH   6   7
ENDBRANCH   2   6
ENDBRANCH   1   3
BRANCH   1   9
ATOM      9  C   ASP A   2      25.366 -11.252  18.767  0.00  0.00    +0.241 C 
ATOM     10  N   VAL A   3      24.946 -10.816  19.956  0.00  0.00    -0.298 N 
ATOM     11  H   VAL A   3      24.855  -9.794  20.126  0.00  0.00    +0.150 HD
ATOM     12  O   ASP A   2      25.563 -12.445  18.521  0.00  0.00    -0.273 OA
BRANCH  10  13
ATOM     13  CA  VAL A   3      24.612 -11.758  21.023  0.00  0.00    +0.137 C 
BRANCH  13  14
ATOM     14  CB  VAL A   3      24.302 -11.043  22.351  0.00  0.00    +0.026 C 
ATOM     15  CG2 VAL A   3      23.894 -12.051  23.419  0.00  0.00    +0.002 C 
ATOM     16  CG1 VAL A   3      25.514 -10.244  22.816  0.00  0.00    +0.002 C 
ENDBRANCH  13  14
BRANCH  13  17
ATOM     17  C   VAL A   3      23.443 -12.653  20.588  0.00  0.00    +0.227 C 
ATOM     18  O   VAL A   3      23.485 -13.872  20.785  0.00  0.00    -0.286 OA
ENDBRANCH  13  17
ENDBRANCH  10  13
ENDBRANCH   1   9
BRANCH   1  19
ATOM     19  CB  ASP A   2      27.054  -9.727  17.735  0.00  0.00    +0.143 C 
BRANCH  19  20
ATOM     20  CG  ASP A   2      27.528  -9.177  16.398  0.00  0.00    +0.367 C 
ATOM     21  OD2 ASP A   2      28.756  -9.202  16.152  0.00  0.00    -0.246 OA
ATOM     22  OD1 ASP A   2      26.677  -8.712  15.599  0.00  0.00    -0.246 OA
ENDBRANCH  19  20
ENDBRANCH   1  19
TORSDOF 9
REMARK  Name = ../refined-set-2016/4ca7/4ca7_pocket.pdb
REMARK  306 active torsions:
REMARK  status: ('A' for Active; 'I' for Inactive)
REMARK    1  A    between atoms: _1  and  _3
REMARK    2  A    between atoms: _3  and  _4
REMARK    3  A    between atoms: _3  and  _6
REMARK    4  A    between atoms: _6  and  _7
REMARK    5  A    between atoms: _7  and  _8
REMARK    6  A    between atoms: _8  and  _9
REMARK    7  A    between atoms: _9  and  _10
REMARK    8  A    between atoms: _14  and  _16
REMARK    9  A    between atoms: _16  and  _17
REMARK   10  A    between atoms: _16  and  _19
REMARK   11  A    between atoms: _19  and  _20
REMARK   12  A    between atoms: _20  and  _21
REMARK   13  A    between atoms: _24  and  _26
REMARK   14  A    between atoms: _26  and  _27
REMARK   15  A    between atoms: _26  and  _29
REMARK   16  A    between atoms: _29  and  _30
REMARK   17  A    between atoms: _30  and  _31
REMARK   18  A    between atoms: _34  and  _36
REMARK   19  A    between atoms: _36  and  _37
REMARK   20  A    between atoms: _36  and  _39
REMARK   21  A    between atoms: _39  and  _40
REMARK   22  A    between atoms: _45  and  _47
REMARK   23  A    between atoms: _47  and  _48
REMARK   24  A    between atoms: _47  and  _50
REMARK   25  A    between atoms: _50  and  _51
REMARK   26  A    between atoms: _61  and  _63
REMARK   27  A    between atoms: _63  and  _64
REMARK   28  A    between atoms: _63  and  _66
REMARK   29  A    between atoms: _66  and  _67
REMARK   30  A    between atoms: _67  and  _68
REMARK   31  A    between atoms: _73  and  _75
REMARK   32  A    between atoms: _75  and  _76
REMARK   33  A    between atoms: _75  and  _78
REMARK   34  A    between atoms: _78  and  _79
REMARK   35  A    between atoms: _79  and  _80
REMARK   36  A    between atoms: _85  and  _87
REMARK   37  A    between atoms: _87  and  _88
REMARK   38  A    between atoms: _87  and  _90
REMARK   39  A    between atoms: _90  and  _91
REMARK   40  A    between atoms: _93  and  _95
REMARK   41  A    between atoms: _95  and  _96
REMARK   42  A    between atoms: _95  and  _98
REMARK   43  A    between atoms: _101  and  _103
REMARK   44  A    between atoms: _103  and  _104
REMARK   45  A    between atoms: _103  and  _106
REMARK   46  A    between atoms: _108  and  _110
REMARK   47  A    between atoms: _110  and  _111
REMARK   48  A    between atoms: _110  and  _113
REMARK   49  A    between atoms: _113  and  _114
REMARK   50  A    between atoms: _119  and  _121
REMARK   51  A    between atoms: _121  and  _122
REMARK   52  A    between atoms: _125  and  _127
REMARK   53  A    between atoms: _127  and  _128
REMARK   54  A    between atoms: _127  and  _130
REMARK   55  A    between atoms: _130  and  _131
REMARK   56  A    between atoms: _133  and  _135
REMARK   57  A    between atoms: _135  and  _136
REMARK   58  A    between atoms: _139  and  _141
REMARK   59  A    between atoms: _141  and  _142
REMARK   60  A    between atoms: _141  and  _144
REMARK   61  A    between atoms: _144  and  _145
REMARK   62  A    between atoms: _155  and  _157
REMARK   63  A    between atoms: _157  and  _158
REMARK   64  A    between atoms: _157  and  _160
REMARK   65  A    between atoms: _160  and  _161
REMARK   66  A    between atoms: _164  and  _166
REMARK   67  A    between atoms: _166  and  _167
REMARK   68  A    between atoms: _166  and  _169
REMARK   69  A    between atoms: _169  and  _170
REMARK   70  A    between atoms: _175  and  _176
REMARK   71  A    between atoms: _178  and  _180
REMARK   72  A    between atoms: _180  and  _181
REMARK   73  A    between atoms: _180  and  _183
REMARK   74  A    between atoms: _183  and  _184
REMARK   75  A    between atoms: _184  and  _185
REMARK   76  A    between atoms: _185  and  _186
REMARK   77  A    between atoms: _195  and  _197
REMARK   78  A    between atoms: _197  and  _198
REMARK   79  A    between atoms: _197  and  _200
REMARK   80  A    between atoms: _200  and  _201
REMARK   81  A    between atoms: _204  and  _206
REMARK   82  A    between atoms: _206  and  _207
REMARK   83  A    between atoms: _206  and  _209
REMARK   84  A    between atoms: _209  and  _210
REMARK   85  A    between atoms: _210  and  _211
REMARK   86  A    between atoms: _211  and  _212
REMARK   87  A    between atoms: _212  and  _213
REMARK   88  A    between atoms: _217  and  _219
REMARK   89  A    between atoms: _219  and  _220
REMARK   90  A    between atoms: _219  and  _222
REMARK   91  A    between atoms: _222  and  _223
REMARK   92  A    between atoms: _223  and  _224
REMARK   93  A    between atoms: _229  and  _231
REMARK   94  A    between atoms: _231  and  _232
REMARK   95  A    between atoms: _231  and  _234
REMARK   96  A    between atoms: _234  and  _235
REMARK   97  A    between atoms: _235  and  _236
REMARK   98  A    between atoms: _236  and  _237
REMARK   99  A    between atoms: _246  and  _248
REMARK  100  A    between atoms: _248  and  _249
REMARK  101  A    between atoms: _248  and  _251
REMARK  102  A    between atoms: _251  and  _252
REMARK  103  A    between atoms: _252  and  _253
REMARK  104  A    between atoms: _258  and  _260
REMARK  105  A    between atoms: _260  and  _261
REMARK  106  A    between atoms: _260  and  _263
REMARK  107  A    between atoms: _263  and  _264
REMARK  108  A    between atoms: _267  and  _269
REMARK  109  A    between atoms: _269  and  _270
REMARK  110  A    between atoms: _269  and  _272
REMARK  111  A    between atoms: _272  and  _273
REMARK  112  A    between atoms: _273  and  _274
REMARK  113  A    between atoms: _279  and  _281
REMARK  114  A    between atoms: _281  and  _282
REMARK  115  A    between atoms: _281  and  _284
REMARK  116  A    between atoms: _284  and  _285
REMARK  117  A    between atoms: _288  and  _290
REMARK  118  A    between atoms: _290  and  _291
REMARK  119  A    between atoms: _290  and  _293
REMARK  120  A    between atoms: _293  and  _294
REMARK  121  A    between atoms: _300  and  _302
REMARK  122  A    between atoms: _302  and  _303
REMARK  123  A    between atoms: _302  and  _305
REMARK  124  A    between atoms: _305  and  _306
REMARK  125  A    between atoms: _309  and  _311
REMARK  126  A    between atoms: _311  and  _312
REMARK  127  A    between atoms: _311  and  _314
REMARK  128  A    between atoms: _317  and  _319
REMARK  129  A    between atoms: _319  and  _320
REMARK  130  A    between atoms: _319  and  _322
REMARK  131  A    between atoms: _322  and  _323
REMARK  132  A    between atoms: _328  and  _330
REMARK  133  A    between atoms: _341  and  _344
REMARK  134  A    between atoms: _344  and  _345
REMARK  135  A    between atoms: _345  and  _346
REMARK  136  A    between atoms: _351  and  _354
REMARK  137  A    between atoms: _354  and  _355
REMARK  138  A    between atoms: _365  and  _366
REMARK  139  A    between atoms: _374  and  _376
REMARK  140  A    between atoms: _376  and  _377
REMARK  141  A    between atoms: _376  and  _379
REMARK  142  A    between atoms: _379  and  _380
REMARK  143  A    between atoms: _383  and  _385
REMARK  144  A    between atoms: _385  and  _386
REMARK  145  A    between atoms: _385  and  _388
REMARK  146  A    between atoms: _388  and  _389
REMARK  147  A    between atoms: _394  and  _395
REMARK  148  A    between atoms: _397  and  _399
REMARK  149  A    between atoms: _399  and  _400
REMARK  150  A    between atoms: _399  and  _402
REMARK  151  A    between atoms: _402  and  _403
REMARK  152  A    between atoms: _409  and  _411
REMARK  153  A    between atoms: _411  and  _412
REMARK  154  A    between atoms: _411  and  _414
REMARK  155  A    between atoms: _414  and  _415
REMARK  156  A    between atoms: _420  and  _421
REMARK  157  A    between atoms: _423  and  _425
REMARK  158  A    between atoms: _425  and  _426
REMARK  159  A    between atoms: _425  and  _428
REMARK  160  A    between atoms: _428  and  _429
REMARK  161  A    between atoms: _429  and  _430
REMARK  162  A    between atoms: _430  and  _431
REMARK  163  A    between atoms: _440  and  _442
REMARK  164  A    between atoms: _442  and  _443
REMARK  165  A    between atoms: _442  and  _445
REMARK  166  A    between atoms: _445  and  _446
REMARK  167  A    between atoms: _449  and  _451
REMARK  168  A    between atoms: _451  and  _452
REMARK  169  A    between atoms: _454  and  _456
REMARK  170  A    between atoms: _456  and  _457
REMARK  171  A    between atoms: _456  and  _459
REMARK  172  A    between atoms: _459  and  _460
REMARK  173  A    between atoms: _466  and  _467
REMARK  174  A    between atoms: _472  and  _474
REMARK  175  A    between atoms: _474  and  _475
REMARK  176  A    between atoms: _477  and  _479
REMARK  177  A    between atoms: _479  and  _480
REMARK  178  A    between atoms: _479  and  _482
REMARK  179  A    between atoms: _482  and  _483
REMARK  180  A    between atoms: _489  and  _491
REMARK  181  A    between atoms: _491  and  _492
REMARK  182  A    between atoms: _491  and  _494
REMARK  183  A    between atoms: _494  and  _495
REMARK  184  A    between atoms: _500  and  _502
REMARK  185  A    between atoms: _502  and  _503
REMARK  186  A    between atoms: _502  and  _505
REMARK  187  A    between atoms: _505  and  _506
REMARK  188  A    between atoms: _506  and  _507
REMARK  189  A    between atoms: _507  and  _508
REMARK  190  A    between atoms: _508  and  ZN_790
REMARK  191  A    between atoms: _510  and  _512
REMARK  192  A    between atoms: _512  and  _513
REMARK  193  A    between atoms: _516  and  _518
REMARK  194  A    between atoms: _518  and  _519
REMARK  195  A    between atoms: _521  and  _523
REMARK  196  A    between atoms: _523  and  _524
REMARK  197  A    between atoms: _523  and  _526
REMARK  198  A    between atoms: _526  and  _527
REMARK  199  A    between atoms: _530  and  _532
REMARK  200  A    between atoms: _532  and  _533
REMARK  201  A    between atoms: _532  and  _535
REMARK  202  A    between atoms: _538  and  _540
REMARK  203  A    between atoms: _540  and  _541
REMARK  204  A    between atoms: _540  and  _543
REMARK  205  A    between atoms: _543  and  _544
REMARK  206  A    between atoms: _546  and  _548
REMARK  207  A    between atoms: _548  and  _549
REMARK  208  A    between atoms: _548  and  _551
REMARK  209  A    between atoms: _551  and  _552
REMARK  210  A    between atoms: _555  and  _557
REMARK  211  A    between atoms: _557  and  _558
REMARK  212  A    between atoms: _557  and  _560
REMARK  213  A    between atoms: _560  and  _561
REMARK  214  A    between atoms: _563  and  _565
REMARK  215  A    between atoms: _565  and  _566
REMARK  216  A    between atoms: _565  and  _568
REMARK  217  A    between atoms: _568  and  _569
REMARK  218  A    between atoms: _572  and  _574
REMARK  219  A    between atoms: _574  and  _575
REMARK  220  A    between atoms: _574  and  _577
REMARK  221  A    between atoms: _577  and  _578
REMARK  222  A    between atoms: _578  and  _579
REMARK  223  A    between atoms: _579  and  _580
REMARK  224  A    between atoms: _580  and  _581
REMARK  225  A    between atoms: _585  and  _587
REMARK  226  A    between atoms: _587  and  _588
REMARK  227  A    between atoms: _587  and  _590
REMARK  228  A    between atoms: _590  and  _591
REMARK  229  A    between atoms: _597  and  _599
REMARK  230  A    between atoms: _599  and  _600
REMARK  231  A    between atoms: _599  and  _602
REMARK  232  A    between atoms: _602  and  _603
REMARK  233  A    between atoms: _609  and  _611
REMARK  234  A    between atoms: _611  and  _612
REMARK  235  A    between atoms: _615  and  _617
REMARK  236  A    between atoms: _617  and  _618
REMARK  237  A    between atoms: _617  and  _620
REMARK  238  A    between atoms: _620  and  _621
REMARK  239  A    between atoms: _621  and  _622
REMARK  240  A    between atoms: _624  and  _626
REMARK  241  A    between atoms: _626  and  _627
REMARK  242  A    between atoms: _626  and  _629
REMARK  243  A    between atoms: _629  and  _630
REMARK  244  A    between atoms: _630  and  _631
REMARK  245  A    between atoms: _631  and  _632
REMARK  246  A    between atoms: _632  and  _633
REMARK  247  A    between atoms: _637  and  _639
REMARK  248  A    between atoms: _639  and  _640
REMARK  249  A    between atoms: _639  and  _642
REMARK  250  A    between atoms: _642  and  _643
REMARK  251  A    between atoms: _648  and  _649
REMARK  252  A    between atoms: _651  and  _653
REMARK  253  A    between atoms: _653  and  _654
REMARK  254  A    between atoms: _653  and  _656
REMARK  255  A    between atoms: _656  and  _657
REMARK  256  A    between atoms: _662  and  _664
REMARK  257  A    between atoms: _664  and  _665
REMARK  258  A    between atoms: _664  and  _667
REMARK  259  A    between atoms: _667  and  _668
REMARK  260  A    between atoms: _671  and  _673
REMARK  261  A    between atoms: _673  and  _674
REMARK  262  A    between atoms: _677  and  _679
REMARK  263  A    between atoms: _679  and  _680
REMARK  264  A    between atoms: _679  and  _682
REMARK  265  A    between atoms: _682  and  _683
REMARK  266  A    between atoms: _686  and  _688
REMARK  267  A    between atoms: _688  and  _689
REMARK  268  A    between atoms: _688  and  _691
REMARK  269  A    between atoms: _694  and  _696
REMARK  270  A    between atoms: _696  and  _697
REMARK  271  A    between atoms: _696  and  _699
REMARK  272  A    between atoms: _699  and  _700
REMARK  273  A    between atoms: _700  and  _701
REMARK  274  A    between atoms: _704  and  _706
REMARK  275  A    between atoms: _706  and  _707
REMARK  276  A    between atoms: _706  and  _709
REMARK  277  A    between atoms: _709  and  _710
REMARK  278  A    between atoms: _715  and  _716
REMARK  279  A    between atoms: _718  and  _720
REMARK  280  A    between atoms: _720  and  _721
REMARK  281  A    between atoms: _720  and  _723
REMARK  282  A    between atoms: _723  and  _724
REMARK  283  A    between atoms: _724  and  _725
REMARK  284  A    between atoms: _725  and  _726
REMARK  285  A    between atoms: _735  and  _737
REMARK  286  A    between atoms: _737  and  _738
REMARK  287  A    between atoms: _737  and  _740
REMARK  288  A    between atoms: _740  and  _741
REMARK  289  A    between atoms: _746  and  _747
REMARK  290  A    between atoms: _749  and  _751
REMARK  291  A    between atoms: _751  and  _752
REMARK  292  A    between atoms: _751  and  _754
REMARK  293  A    between atoms: _754  and  _755
REMARK  294  A    between atoms: _758  and  _760
REMARK  295  A    between atoms: _760  and  _761
REMARK  296  A    between atoms: _760  and  _763
REMARK  297  A    between atoms: _763  and  _764
REMARK  298  A    between atoms: _766  and  _768
REMARK  299  A    between atoms: _768  and  _769
REMARK  300  A    between atoms: _768  and  _771
REMARK  301  A    between atoms: _771  and  _772
REMARK  302  A    between atoms: _778  and  _780
REMARK  303  A    between atoms: _780  and  _781
REMARK  304  A    between atoms: _780  and  _783
REMARK  305  A    between atoms: _783  and  _784
REMARK  306  A    between atoms: _784  and  _785
REMARK                            x       y       z     vdW  Elec       q    Type
REMARK                         _______ _______ _______ _____ _____    ______ ____
ROOT
ATOM      1  C   SER A   1      23.836 -15.122  16.593  0.00  0.00    +0.241 C 
ATOM      2  N   LEU A   2      24.522 -15.066  17.738  0.00  0.00    -0.298 N 
ATOM      3  H   LEU A   2      24.564 -14.173  18.270  0.00  0.00    +0.150 HD
ATOM      4  O   SER A   1      23.837 -16.113  15.850  0.00  0.00    -0.274 OA
ENDROOT
BRANCH   1   5
ATOM      5  CA  SER A   1      23.035 -13.885  16.202  0.00  0.00    +0.174 C 
BRANCH   5   6
ATOM      6  N   SER A   1      22.515 -13.146  17.369  0.00  0.00    -0.236 NA
ATOM      7  H   SER A   1      22.779 -12.147  17.488  0.00  0.00    +0.142 HD
ENDBRANCH   5   6
BRANCH   5   8
ATOM      8  CB  SER A   1      23.905 -12.996  15.304  0.00  0.00    +0.163 C 
BRANCH   8   9
ATOM      9  OG  SER A   1      23.121 -12.220  14.412  0.00  0.00    -0.380 OA
ATOM     10  H   SER A   1      23.716 -11.662  13.852  0.00  0.00    +0.211 HD
ENDBRANCH   8   9
ENDBRANCH   5   8
ENDBRANCH   1   5
BRANCH   2  11
ATOM     11  CA  LEU A   2      25.215 -16.248  18.251  0.00  0.00    +0.137 C 
BRANCH  11  12
ATOM     12  C   LEU A   2      24.229 -17.391  18.526  0.00  0.00    +0.227 C 
ATOM     13  O   LEU A   2      24.515 -18.536  18.180  0.00  0.00    -0.286 OA
ENDBRANCH  11  12
BRANCH  11  14
ATOM     14  CB  LEU A   2      26.078 -15.931  19.479  0.00  0.00    +0.028 C 
BRANCH  14  15
ATOM     15  CG  LEU A   2      27.499 -15.410  19.198  0.00  0.00    +0.002 C 
ATOM     16  CD2 LEU A   2      28.087 -14.722  20.426  0.00  0.00    +0.000 C 
ATOM     17  CD1 LEU A   2      28.453 -16.506  18.704  0.00  0.00    +0.000 C 
ENDBRANCH  14  15
ENDBRANCH  11  14
ENDBRANCH   2  11
TORSDOF 8
REMARK  Name = ../refined-set-2016/4ca7/4ca7_pocket.pdb
REMARK  306 active torsions:
REMARK  status: ('A' for Active; 'I' for Inactive)
REMARK    1  A    between atoms: _1  and  _3
REMARK    2  A    between atoms: _3  and  _4
REMARK    3  A    between atoms: _3  and  _6
REMARK    4  A    between atoms: _6  and  _7
REMARK    5  A    between atoms: _7  and  _8
REMARK    6  A    between atoms: _8  and  _9
REMARK    7  A    between atoms: _9  and  _10
REMARK    8  A    between atoms: _14  and  _16
REMARK    9  A    between atoms: _16  and  _17
REMARK   10  A    between atoms: _16  and  _19
REMARK   11  A    between atoms: _19  and  _20
REMARK   12  A    between atoms: _20  and  _21
REMARK   13  A    between atoms: _24  and  _26
REMARK   14  A    between atoms: _26  and  _27
REMARK   15  A    between atoms: _26  and  _29
REMARK   16  A    between atoms: _29  and  _30
REMARK   17  A    between atoms: _30  and  _31
REMARK   18  A    between atoms: _34  and  _36
REMARK   19  A    between atoms: _36  and  _37
REMARK   20  A    between atoms: _36  and  _39
REMARK   21  A    between atoms: _39  and  _40
REMARK   22  A    between atoms: _45  and  _47
REMARK   23  A    between atoms: _47  and  _48
REMARK   24  A    between atoms: _47  and  _50
REMARK   25  A    between atoms: _50  and  _51
REMARK   26  A    between atoms: _61  and  _63
REMARK   27  A    between atoms: _63  and  _64
REMARK   28  A    between atoms: _63  and  _66
REMARK   29  A    between atoms: _66  and  _67
REMARK   30  A    between atoms: _67  and  _68
REMARK   31  A    between atoms: _73  and  _75
REMARK   32  A    between atoms: _75  and  _76
REMARK   33  A    between atoms: _75  and  _78
REMARK   34  A    between atoms: _78  and  _79
REMARK   35  A    between atoms: _79  and  _80
REMARK   36  A    between atoms: _85  and  _87
REMARK   37  A    between atoms: _87  and  _88
REMARK   38  A    between atoms: _87  and  _90
REMARK   39  A    between atoms: _90  and  _91
REMARK   40  A    between atoms: _93  and  _95
REMARK   41  A    between atoms: _95  and  _96
REMARK   42  A    between atoms: _95  and  _98
REMARK   43  A    between atoms: _101  and  _103
REMARK   44  A    between atoms: _103  and  _104
REMARK   45  A    between atoms: _103  and  _106
REMARK   46  A    between atoms: _108  and  _110
REMARK   47  A    between atoms: _110  and  _111
REMARK   48  A    between atoms: _110  and  _113
REMARK   49  A    between atoms: _113  and  _114
REMARK   50  A    between atoms: _119  and  _121
REMARK   51  A    between atoms: _121  and  _122
REMARK   52  A    between atoms: _125  and  _127
REMARK   53  A    between atoms: _127  and  _128
REMARK   54  A    between atoms: _127  and  _130
REMARK   55  A    between atoms: _130  and  _131
REMARK   56  A    between atoms: _133  and  _135
REMARK   57  A    between atoms: _135  and  _136
REMARK   58  A    between atoms: _139  and  _141
REMARK   59  A    between atoms: _141  and  _142
REMARK   60  A    between atoms: _141  and  _144
REMARK   61  A    between atoms: _144  and  _145
REMARK   62  A    between atoms: _155  and  _157
REMARK   63  A    between atoms: _157  and  _158
REMARK   64  A    between atoms: _157  and  _160
REMARK   65  A    between atoms: _160  and  _161
REMARK   66  A    between atoms: _164  and  _166
REMARK   67  A    between atoms: _166  and  _167
REMARK   68  A    between atoms: _166  and  _169
REMARK   69  A    between atoms: _169  and  _170
REMARK   70  A    between atoms: _175  and  _176
REMARK   71  A    between atoms: _178  and  _180
REMARK   72  A    between atoms: _180  and  _181
REMARK   73  A    between atoms: _180  and  _183
REMARK   74  A    between atoms: _183  and  _184
REMARK   75  A    between atoms: _184  and  _185
REMARK   76  A    between atoms: _185  and  _186
REMARK   77  A    between atoms: _195  and  _197
REMARK   78  A    between atoms: _197  and  _198
REMARK   79  A    between atoms: _197  and  _200
REMARK   80  A    between atoms: _200  and  _201
REMARK   81  A    between atoms: _204  and  _206
REMARK   82  A    between atoms: _206  and  _207
REMARK   83  A    between atoms: _206  and  _209
REMARK   84  A    between atoms: _209  and  _210
REMARK   85  A    between atoms: _210  and  _211
REMARK   86  A    between atoms: _211  and  _212
REMARK   87  A    between atoms: _212  and  _213
REMARK   88  A    between atoms: _217  and  _219
REMARK   89  A    between atoms: _219  and  _220
REMARK   90  A    between atoms: _219  and  _222
REMARK   91  A    between atoms: _222  and  _223
REMARK   92  A    between atoms: _223  and  _224
REMARK   93  A    between atoms: _229  and  _231
REMARK   94  A    between atoms: _231  and  _232
REMARK   95  A    between atoms: _231  and  _234
REMARK   96  A    between atoms: _234  and  _235
REMARK   97  A    between atoms: _235  and  _236
REMARK   98  A    between atoms: _236  and  _237
REMARK   99  A    between atoms: _246  and  _248
REMARK  100  A    between atoms: _248  and  _249
REMARK  101  A    between atoms: _248  and  _251
REMARK  102  A    between atoms: _251  and  _252
REMARK  103  A    between atoms: _252  and  _253
REMARK  104  A    between atoms: _258  and  _260
REMARK  105  A    between atoms: _260  and  _261
REMARK  106  A    between atoms: _260  and  _263
REMARK  107  A    between atoms: _263  and  _264
REMARK  108  A    between atoms: _267  and  _269
REMARK  109  A    between atoms: _269  and  _270
REMARK  110  A    between atoms: _269  and  _272
REMARK  111  A    between atoms: _272  and  _273
REMARK  112  A    between atoms: _273  and  _274
REMARK  113  A    between atoms: _279  and  _281
REMARK  114  A    between atoms: _281  and  _282
REMARK  115  A    between atoms: _281  and  _284
REMARK  116  A    between atoms: _284  and  _285
REMARK  117  A    between atoms: _288  and  _290
REMARK  118  A    between atoms: _290  and  _291
REMARK  119  A    between atoms: _290  and  _293
REMARK  120  A    between atoms: _293  and  _294
REMARK  121  A    between atoms: _300  and  _302
REMARK  122  A    between atoms: _302  and  _303
REMARK  123  A    between atoms: _302  and  _305
REMARK  124  A    between atoms: _305  and  _306
REMARK  125  A    between atoms: _309  and  _311
REMARK  126  A    between atoms: _311  and  _312
REMARK  127  A    between atoms: _311  and  _314
REMARK  128  A    between atoms: _317  and  _319
REMARK  129  A    between atoms: _319  and  _320
REMARK  130  A    between atoms: _319  and  _322
REMARK  131  A    between atoms: _322  and  _323
REMARK  132  A    between atoms: _328  and  _330
REMARK  133  A    between atoms: _341  and  _344
REMARK  134  A    between atoms: _344  and  _345
REMARK  135  A    between atoms: _345  and  _346
REMARK  136  A    between atoms: _351  and  _354
REMARK  137  A    between atoms: _354  and  _355
REMARK  138  A    between atoms: _365  and  _366
REMARK  139  A    between atoms: _374  and  _376
REMARK  140  A    between atoms: _376  and  _377
REMARK  141  A    between atoms: _376  and  _379
REMARK  142  A    between atoms: _379  and  _380
REMARK  143  A    between atoms: _383  and  _385
REMARK  144  A    between atoms: _385  and  _386
REMARK  145  A    between atoms: _385  and  _388
REMARK  146  A    between atoms: _388  and  _389
REMARK  147  A    between atoms: _394  and  _395
REMARK  148  A    between atoms: _397  and  _399
REMARK  149  A    between atoms: _399  and  _400
REMARK  150  A    between atoms: _399  and  _402
REMARK  151  A    between atoms: _402  and  _403
REMARK  152  A    between atoms: _409  and  _411
REMARK  153  A    between atoms: _411  and  _412
REMARK  154  A    between atoms: _411  and  _414
REMARK  155  A    between atoms: _414  and  _415
REMARK  156  A    between atoms: _420  and  _421
REMARK  157  A    between atoms: _423  and  _425
REMARK  158  A    between atoms: _425  and  _426
REMARK  159  A    between atoms: _425  and  _428
REMARK  160  A    between atoms: _428  and  _429
REMARK  161  A    between atoms: _429  and  _430
REMARK  162  A    between atoms: _430  and  _431
REMARK  163  A    between atoms: _440  and  _442
REMARK  164  A    between atoms: _442  and  _443
REMARK  165  A    between atoms: _442  and  _445
REMARK  166  A    between atoms: _445  and  _446
REMARK  167  A    between atoms: _449  and  _451
REMARK  168  A    between atoms: _451  and  _452
REMARK  169  A    between atoms: _454  and  _456
REMARK  170  A    between atoms: _456  and  _457
REMARK  171  A    between atoms: _456  and  _459
REMARK  172  A    between atoms: _459  and  _460
REMARK  173  A    between atoms: _466  and  _467
REMARK  174  A    between atoms: _472  and  _474
REMARK  175  A    between atoms: _474  and  _475
REMARK  176  A    between atoms: _477  and  _479
REMARK  177  A    between atoms: _479  and  _480
REMARK  178  A    between atoms: _479  and  _482
REMARK  179  A    between atoms: _482  and  _483
REMARK  180  A    between atoms: _489  and  _491
REMARK  181  A    between atoms: _491  and  _492
REMARK  182  A    between atoms: _491  and  _494
REMARK  183  A    between atoms: _494  and  _495
REMARK  184  A    between atoms: _500  and  _502
REMARK  185  A    between atoms: _502  and  _503
REMARK  186  A    between atoms: _502  and  _505
REMARK  187  A    between atoms: _505  and  _506
REMARK  188  A    between atoms: _506  and  _507
REMARK  189  A    between atoms: _507  and  _508
REMARK  190  A    between atoms: _508  and  ZN_790
REMARK  191  A    between atoms: _510  and  _512
REMARK  192  A    between atoms: _512  and  _513
REMARK  193  A    between atoms: _516  and  _518
REMARK  194  A    between atoms: _518  and  _519
REMARK  195  A    between atoms: _521  and  _523
REMARK  196  A    between atoms: _523  and  _524
REMARK  197  A    between atoms: _523  and  _526
REMARK  198  A    between atoms: _526  and  _527
REMARK  199  A    between atoms: _530  and  _532
REMARK  200  A    between atoms: _532  and  _533
REMARK  201  A    between atoms: _532  and  _535
REMARK  202  A    between atoms: _538  and  _540
REMARK  203  A    between atoms: _540  and  _541
REMARK  204  A    between atoms: _540  and  _543
REMARK  205  A    between atoms: _543  and  _544
REMARK  206  A    between atoms: _546  and  _548
REMARK  207  A    between atoms: _548  and  _549
REMARK  208  A    between atoms: _548  and  _551
REMARK  209  A    between atoms: _551  and  _552
REMARK  210  A    between atoms: _555  and  _557
REMARK  211  A    between atoms: _557  and  _558
REMARK  212  A    between atoms: _557  and  _560
REMARK  213  A    between atoms: _560  and  _561
REMARK  214  A    between atoms: _563  and  _565
REMARK  215  A    between atoms: _565  and  _566
REMARK  216  A    between atoms: _565  and  _568
REMARK  217  A    between atoms: _568  and  _569
REMARK  218  A    between atoms: _572  and  _574
REMARK  219  A    between atoms: _574  and  _575
REMARK  220  A    between atoms: _574  and  _577
REMARK  221  A    between atoms: _577  and  _578
REMARK  222  A    between atoms: _578  and  _579
REMARK  223  A    between atoms: _579  and  _580
REMARK  224  A    between atoms: _580  and  _581
REMARK  225  A    between atoms: _585  and  _587
REMARK  226  A    between atoms: _587  and  _588
REMARK  227  A    between atoms: _587  and  _590
REMARK  228  A    between atoms: _590  and  _591
REMARK  229  A    between atoms: _597  and  _599
REMARK  230  A    between atoms: _599  and  _600
REMARK  231  A    between atoms: _599  and  _602
REMARK  232  A    between atoms: _602  and  _603
REMARK  233  A    between atoms: _609  and  _611
REMARK  234  A    between atoms: _611  and  _612
REMARK  235  A    between atoms: _615  and  _617
REMARK  236  A    between atoms: _617  and  _618
REMARK  237  A    between atoms: _617  and  _620
REMARK  238  A    between atoms: _620  and  _621
REMARK  239  A    between atoms: _621  and  _622
REMARK  240  A    between atoms: _624  and  _626
REMARK  241  A    between atoms: _626  and  _627
REMARK  242  A    between atoms: _626  and  _629
REMARK  243  A    between atoms: _629  and  _630
REMARK  244  A    between atoms: _630  and  _631
REMARK  245  A    between atoms: _631  and  _632
REMARK  246  A    between atoms: _632  and  _633
REMARK  247  A    between atoms: _637  and  _639
REMARK  248  A    between atoms: _639  and  _640
REMARK  249  A    between atoms: _639  and  _642
REMARK  250  A    between atoms: _642  and  _643
REMARK  251  A    between atoms: _648  and  _649
REMARK  252  A    between atoms: _651  and  _653
REMARK  253  A    between atoms: _653  and  _654
REMARK  254  A    between atoms: _653  and  _656
REMARK  255  A    between atoms: _656  and  _657
REMARK  256  A    between atoms: _662  and  _664
REMARK  257  A    between atoms: _664  and  _665
REMARK  258  A    between atoms: _664  and  _667
REMARK  259  A    between atoms: _667  and  _668
REMARK  260  A    between atoms: _671  and  _673
REMARK  261  A    between atoms: _673  and  _674
REMARK  262  A    between atoms: _677  and  _679
REMARK  263  A    between atoms: _679  and  _680
REMARK  264  A    between atoms: _679  and  _682
REMARK  265  A    between atoms: _682  and  _683
REMARK  266  A    between atoms: _686  and  _688
REMARK  267  A    between atoms: _688  and  _689
REMARK  268  A    between atoms: _688  and  _691
REMARK  269  A    between atoms: _694  and  _696
REMARK  270  A    between atoms: _696  and  _697
REMARK  271  A    between atoms: _696  and  _699
REMARK  272  A    between atoms: _699  and  _700
REMARK  273  A    between atoms: _700  and  _701
REMARK  274  A    between atoms: _704  and  _706
REMARK  275  A    between atoms: _706  and  _707
REMARK  276  A    between atoms: _706  and  _709
REMARK  277  A    between atoms: _709  and  _710
REMARK  278  A    between atoms: _715  and  _716
REMARK  279  A    between atoms: _718  and  _720
REMARK  280  A    between atoms: _720  and  _721
REMARK  281  A    between atoms: _720  and  _723
REMARK  282  A    between atoms: _723  and  _724
REMARK  283  A    between atoms: _724  and  _725
REMARK  284  A    between atoms: _725  and  _726
REMARK  285  A    between atoms: _735  and  _737
REMARK  286  A    between atoms: _737  and  _738
REMARK  287  A    between atoms: _737  and  _740
REMARK  288  A    between atoms: _740  and  _741
REMARK  289  A    between atoms: _746  and  _747
REMARK  290  A    between atoms: _749  and  _751
REMARK  291  A    between atoms: _751  and  _752
REMARK  292  A    between atoms: _751  and  _754
REMARK  293  A    between atoms: _754  and  _755
REMARK  294  A    between atoms: _758  and  _760
REMARK  295  A    between atoms: _760  and  _761
REMARK  296  A    between atoms: _760  and  _763
REMARK  297  A    between atoms: _763  and  _764
REMARK  298  A    between atoms: _766  and  _768
REMARK  299  A    between atoms: _768  and  _769
REMARK  300  A    between atoms: _768  and  _771
REMARK  301  A    between atoms: _771  and  _772
REMARK  302  A    between atoms: _778  and  _780
REMARK  303  A    between atoms: _780  and  _781
REMARK  304  A    between atoms: _780  and  _783
REMARK  305  A    between atoms: _783  and  _784
REMARK  306  A    between atoms: _784  and  _785
REMARK                            x       y       z     vdW  Elec       q    Type
REMARK                         _______ _______ _______ _____ _____    ______ ____
ROOT
ATOM      1  CA  SER A   1      23.593 -19.545  14.445  0.00  0.00    +0.163 C 
ENDROOT
BRANCH   1   2
ATOM      2  N   SER A   1      22.653 -18.712  15.194  0.00  0.00    -0.237 NA
ATOM      3  H   SER A   1      23.027 -18.003  15.857  0.00  0.00    +0.142 HD
ENDBRANCH   1   2
BRANCH   1   4
ATOM      4  CB  SER A   1      23.730 -20.989  14.963  0.00  0.00    +0.227 C 
ATOM      5  OG  SER A   1      24.280 -21.838  14.268  0.00  0.00    -0.287 OA
ENDBRANCH   1   4
BRANCH   1   6
ATOM      6  C   SER A   1      24.976 -18.878  14.397  0.00  0.00    +0.162 C 
BRANCH   6   7
ATOM      7  O   SER A   1      25.621 -18.950  15.661  0.00  0.00    -0.380 OA
ATOM      8  H   SER A   1      25.068 -18.487  16.339  0.00  0.00    +0.211 HD
ENDBRANCH   6   7
ENDBRANCH   1   6
TORSDOF 4
REMARK  Name = ../refined-set-2016/4ca7/4ca7_pocket.pdb
REMARK  306 active torsions:
REMARK  status: ('A' for Active; 'I' for Inactive)
REMARK    1  A    between atoms: _1  and  _3
REMARK    2  A    between atoms: _3  and  _4
REMARK    3  A    between atoms: _3  and  _6
REMARK    4  A    between atoms: _6  and  _7
REMARK    5  A    between atoms: _7  and  _8
REMARK    6  A    between atoms: _8  and  _9
REMARK    7  A    between atoms: _9  and  _10
REMARK    8  A    between atoms: _14  and  _16
REMARK    9  A    between atoms: _16  and  _17
REMARK   10  A    between atoms: _16  and  _19
REMARK   11  A    between atoms: _19  and  _20
REMARK   12  A    between atoms: _20  and  _21
REMARK   13  A    between atoms: _24  and  _26
REMARK   14  A    between atoms: _26  and  _27
REMARK   15  A    between atoms: _26  and  _29
REMARK   16  A    between atoms: _29  and  _30
REMARK   17  A    between atoms: _30  and  _31
REMARK   18  A    between atoms: _34  and  _36
REMARK   19  A    between atoms: _36  and  _37
REMARK   20  A    between atoms: _36  and  _39
REMARK   21  A    between atoms: _39  and  _40
REMARK   22  A    between atoms: _45  and  _47
REMARK   23  A    between atoms: _47  and  _48
REMARK   24  A    between atoms: _47  and  _50
REMARK   25  A    between atoms: _50  and  _51
REMARK   26  A    between atoms: _61  and  _63
REMARK   27  A    between atoms: _63  and  _64
REMARK   28  A    between atoms: _63  and  _66
REMARK   29  A    between atoms: _66  and  _67
REMARK   30  A    between atoms: _67  and  _68
REMARK   31  A    between atoms: _73  and  _75
REMARK   32  A    between atoms: _75  and  _76
REMARK   33  A    between atoms: _75  and  _78
REMARK   34  A    between atoms: _78  and  _79
REMARK   35  A    between atoms: _79  and  _80
REMARK   36  A    between atoms: _85  and  _87
REMARK   37  A    between atoms: _87  and  _88
REMARK   38  A    between atoms: _87  and  _90
REMARK   39  A    between atoms: _90  and  _91
REMARK   40  A    between atoms: _93  and  _95
REMARK   41  A    between atoms: _95  and  _96
REMARK   42  A    between atoms: _95  and  _98
REMARK   43  A    between atoms: _101  and  _103
REMARK   44  A    between atoms: _103  and  _104
REMARK   45  A    between atoms: _103  and  _106
REMARK   46  A    between atoms: _108  and  _110
REMARK   47  A    between atoms: _110  and  _111
REMARK   48  A    between atoms: _110  and  _113
REMARK   49  A    between atoms: _113  and  _114
REMARK   50  A    between atoms: _119  and  _121
REMARK   51  A    between atoms: _121  and  _122
REMARK   52  A    between atoms: _125  and  _127
REMARK   53  A    between atoms: _127  and  _128
REMARK   54  A    between atoms: _127  and  _130
REMARK   55  A    between atoms: _130  and  _131
REMARK   56  A    between atoms: _133  and  _135
REMARK   57  A    between atoms: _135  and  _136
REMARK   58  A    between atoms: _139  and  _141
REMARK   59  A    between atoms: _141  and  _142
REMARK   60  A    between atoms: _141  and  _144
REMARK   61  A    between atoms: _144  and  _145
REMARK   62  A    between atoms: _155  and  _157
REMARK   63  A    between atoms: _157  and  _158
REMARK   64  A    between atoms: _157  and  _160
REMARK   65  A    between atoms: _160  and  _161
REMARK   66  A    between atoms: _164  and  _166
REMARK   67  A    between atoms: _166  and  _167
REMARK   68  A    between atoms: _166  and  _169
REMARK   69  A    between atoms: _169  and  _170
REMARK   70  A    between atoms: _175  and  _176
REMARK   71  A    between atoms: _178  and  _180
REMARK   72  A    between atoms: _180  and  _181
REMARK   73  A    between atoms: _180  and  _183
REMARK   74  A    between atoms: _183  and  _184
REMARK   75  A    between atoms: _184  and  _185
REMARK   76  A    between atoms: _185  and  _186
REMARK   77  A    between atoms: _195  and  _197
REMARK   78  A    between atoms: _197  and  _198
REMARK   79  A    between atoms: _197  and  _200
REMARK   80  A    between atoms: _200  and  _201
REMARK   81  A    between atoms: _204  and  _206
REMARK   82  A    between atoms: _206  and  _207
REMARK   83  A    between atoms: _206  and  _209
REMARK   84  A    between atoms: _209  and  _210
REMARK   85  A    between atoms: _210  and  _211
REMARK   86  A    between atoms: _211  and  _212
REMARK   87  A    between atoms: _212  and  _213
REMARK   88  A    between atoms: _217  and  _219
REMARK   89  A    between atoms: _219  and  _220
REMARK   90  A    between atoms: _219  and  _222
REMARK   91  A    between atoms: _222  and  _223
REMARK   92  A    between atoms: _223  and  _224
REMARK   93  A    between atoms: _229  and  _231
REMARK   94  A    between atoms: _231  and  _232
REMARK   95  A    between atoms: _231  and  _234
REMARK   96  A    between atoms: _234  and  _235
REMARK   97  A    between atoms: _235  and  _236
REMARK   98  A    between atoms: _236  and  _237
REMARK   99  A    between atoms: _246  and  _248
REMARK  100  A    between atoms: _248  and  _249
REMARK  101  A    between atoms: _248  and  _251
REMARK  102  A    between atoms: _251  and  _252
REMARK  103  A    between atoms: _252  and  _253
REMARK  104  A    between atoms: _258  and  _260
REMARK  105  A    between atoms: _260  and  _261
REMARK  106  A    between atoms: _260  and  _263
REMARK  107  A    between atoms: _263  and  _264
REMARK  108  A    between atoms: _267  and  _269
REMARK  109  A    between atoms: _269  and  _270
REMARK  110  A    between atoms: _269  and  _272
REMARK  111  A    between atoms: _272  and  _273
REMARK  112  A    between atoms: _273  and  _274
REMARK  113  A    between atoms: _279  and  _281
REMARK  114  A    between atoms: _281  and  _282
REMARK  115  A    between atoms: _281  and  _284
REMARK  116  A    between atoms: _284  and  _285
REMARK  117  A    between atoms: _288  and  _290
REMARK  118  A    between atoms: _290  and  _291
REMARK  119  A    between atoms: _290  and  _293
REMARK  120  A    between atoms: _293  and  _294
REMARK  121  A    between atoms: _300  and  _302
REMARK  122  A    between atoms: _302  and  _303
REMARK  123  A    between atoms: _302  and  _305
REMARK  124  A    between atoms: _305  and  _306
REMARK  125  A    between atoms: _309  and  _311
REMARK  126  A    between atoms: _311  and  _312
REMARK  127  A    between atoms: _311  and  _314
REMARK  128  A    between atoms: _317  and  _319
REMARK  129  A    between atoms: _319  and  _320
REMARK  130  A    between atoms: _319  and  _322
REMARK  131  A    between atoms: _322  and  _323
REMARK  132  A    between atoms: _328  and  _330
REMARK  133  A    between atoms: _341  and  _344
REMARK  134  A    between atoms: _344  and  _345
REMARK  135  A    between atoms: _345  and  _346
REMARK  136  A    between atoms: _351  and  _354
REMARK  137  A    between atoms: _354  and  _355
REMARK  138  A    between atoms: _365  and  _366
REMARK  139  A    between atoms: _374  and  _376
REMARK  140  A    between atoms: _376  and  _377
REMARK  141  A    between atoms: _376  and  _379
REMARK  142  A    between atoms: _379  and  _380
REMARK  143  A    between atoms: _383  and  _385
REMARK  144  A    between atoms: _385  and  _386
REMARK  145  A    between atoms: _385  and  _388
REMARK  146  A    between atoms: _388  and  _389
REMARK  147  A    between atoms: _394  and  _395
REMARK  148  A    between atoms: _397  and  _399
REMARK  149  A    between atoms: _399  and  _400
REMARK  150  A    between atoms: _399  and  _402
REMARK  151  A    between atoms: _402  and  _403
REMARK  152  A    between atoms: _409  and  _411
REMARK  153  A    between atoms: _411  and  _412
REMARK  154  A    between atoms: _411  and  _414
REMARK  155  A    between atoms: _414  and  _415
REMARK  156  A    between atoms: _420  and  _421
REMARK  157  A    between atoms: _423  and  _425
REMARK  158  A    between atoms: _425  and  _426
REMARK  159  A    between atoms: _425  and  _428
REMARK  160  A    between atoms: _428  and  _429
REMARK  161  A    between atoms: _429  and  _430
REMARK  162  A    between atoms: _430  and  _431
REMARK  163  A    between atoms: _440  and  _442
REMARK  164  A    between atoms: _442  and  _443
REMARK  165  A    between atoms: _442  and  _445
REMARK  166  A    between atoms: _445  and  _446
REMARK  167  A    between atoms: _449  and  _451
REMARK  168  A    between atoms: _451  and  _452
REMARK  169  A    between atoms: _454  and  _456
REMARK  170  A    between atoms: _456  and  _457
REMARK  171  A    between atoms: _456  and  _459
REMARK  172  A    between atoms: _459  and  _460
REMARK  173  A    between atoms: _466  and  _467
REMARK  174  A    between atoms: _472  and  _474
REMARK  175  A    between atoms: _474  and  _475
REMARK  176  A    between atoms: _477  and  _479
REMARK  177  A    between atoms: _479  and  _480
REMARK  178  A    between atoms: _479  and  _482
REMARK  179  A    between atoms: _482  and  _483
REMARK  180  A    between atoms: _489  and  _491
REMARK  181  A    between atoms: _491  and  _492
REMARK  182  A    between atoms: _491  and  _494
REMARK  183  A    between atoms: _494  and  _495
REMARK  184  A    between atoms: _500  and  _502
REMARK  185  A    between atoms: _502  and  _503
REMARK  186  A    between atoms: _502  and  _505
REMARK  187  A    between atoms: _505  and  _506
REMARK  188  A    between atoms: _506  and  _507
REMARK  189  A    between atoms: _507  and  _508
REMARK  190  A    between atoms: _508  and  ZN_790
REMARK  191  A    between atoms: _510  and  _512
REMARK  192  A    between atoms: _512  and  _513
REMARK  193  A    between atoms: _516  and  _518
REMARK  194  A    between atoms: _518  and  _519
REMARK  195  A    between atoms: _521  and  _523
REMARK  196  A    between atoms: _523  and  _524
REMARK  197  A    between atoms: _523  and  _526
REMARK  198  A    between atoms: _526  and  _527
REMARK  199  A    between atoms: _530  and  _532
REMARK  200  A    between atoms: _532  and  _533
REMARK  201  A    between atoms: _532  and  _535
REMARK  202  A    between atoms: _538  and  _540
REMARK  203  A    between atoms: _540  and  _541
REMARK  204  A    between atoms: _540  and  _543
REMARK  205  A    between atoms: _543  and  _544
REMARK  206  A    between atoms: _546  and  _548
REMARK  207  A    between atoms: _548  and  _549
REMARK  208  A    between atoms: _548  and  _551
REMARK  209  A    between atoms: _551  and  _552
REMARK  210  A    between atoms: _555  and  _557
REMARK  211  A    between atoms: _557  and  _558
REMARK  212  A    between atoms: _557  and  _560
REMARK  213  A    between atoms: _560  and  _561
REMARK  214  A    between atoms: _563  and  _565
REMARK  215  A    between atoms: _565  and  _566
REMARK  216  A    between atoms: _565  and  _568
REMARK  217  A    between atoms: _568  and  _569
REMARK  218  A    between atoms: _572  and  _574
REMARK  219  A    between atoms: _574  and  _575
REMARK  220  A    between atoms: _574  and  _577
REMARK  221  A    between atoms: _577  and  _578
REMARK  222  A    between atoms: _578  and  _579
REMARK  223  A    between atoms: _579  and  _580
REMARK  224  A    between atoms: _580  and  _581
REMARK  225  A    between atoms: _585  and  _587
REMARK  226  A    between atoms: _587  and  _588
REMARK  227  A    between atoms: _587  and  _590
REMARK  228  A    between atoms: _590  and  _591
REMARK  229  A    between atoms: _597  and  _599
REMARK  230  A    between atoms: _599  and  _600
REMARK  231  A    between atoms: _599  and  _602
REMARK  232  A    between atoms: _602  and  _603
REMARK  233  A    between atoms: _609  and  _611
REMARK  234  A    between atoms: _611  and  _612
REMARK  235  A    between atoms: _615  and  _617
REMARK  236  A    between atoms: _617  and  _618
REMARK  237  A    between atoms: _617  and  _620
REMARK  238  A    between atoms: _620  and  _621
REMARK  239  A    between atoms: _621  and  _622
REMARK  240  A    between atoms: _624  and  _626
REMARK  241  A    between atoms: _626  and  _627
REMARK  242  A    between atoms: _626  and  _629
REMARK  243  A    between atoms: _629  and  _630
REMARK  244  A    between atoms: _630  and  _631
REMARK  245  A    between atoms: _631  and  _632
REMARK  246  A    between atoms: _632  and  _633
REMARK  247  A    between atoms: _637  and  _639
REMARK  248  A    between atoms: _639  and  _640
REMARK  249  A    between atoms: _639  and  _642
REMARK  250  A    between atoms: _642  and  _643
REMARK  251  A    between atoms: _648  and  _649
REMARK  252  A    between atoms: _651  and  _653
REMARK  253  A    between atoms: _653  and  _654
REMARK  254  A    between atoms: _653  and  _656
REMARK  255  A    between atoms: _656  and  _657
REMARK  256  A    between atoms: _662  and  _664
REMARK  257  A    between atoms: _664  and  _665
REMARK  258  A    between atoms: _664  and  _667
REMARK  259  A    between atoms: _667  and  _668
REMARK  260  A    between atoms: _671  and  _673
REMARK  261  A    between atoms: _673  and  _674
REMARK  262  A    between atoms: _677  and  _679
REMARK  263  A    between atoms: _679  and  _680
REMARK  264  A    between atoms: _679  and  _682
REMARK  265  A    between atoms: _682  and  _683
REMARK  266  A    between atoms: _686  and  _688
REMARK  267  A    between atoms: _688  and  _689
REMARK  268  A    between atoms: _688  and  _691
REMARK  269  A    between atoms: _694  and  _696
REMARK  270  A    between atoms: _696  and  _697
REMARK  271  A    between atoms: _696  and  _699
REMARK  272  A    between atoms: _699  and  _700
REMARK  273  A    between atoms: _700  and  _701
REMARK  274  A    between atoms: _704  and  _706
REMARK  275  A    between atoms: _706  and  _707
REMARK  276  A    between atoms: _706  and  _709
REMARK  277  A    between atoms: _709  and  _710
REMARK  278  A    between atoms: _715  and  _716
REMARK  279  A    between atoms: _718  and  _720
REMARK  280  A    between atoms: _720  and  _721
REMARK  281  A    between atoms: _720  and  _723
REMARK  282  A    between atoms: _723  and  _724
REMARK  283  A    between atoms: _724  and  _725
REMARK  284  A    between atoms: _725  and  _726
REMARK  285  A    between atoms: _735  and  _737
REMARK  286  A    between atoms: _737  and  _738
REMARK  287  A    between atoms: _737  and  _740
REMARK  288  A    between atoms: _740  and  _741
REMARK  289  A    between atoms: _746  and  _747
REMARK  290  A    between atoms: _749  and  _751
REMARK  291  A    between atoms: _751  and  _752
REMARK  292  A    between atoms: _751  and  _754
REMARK  293  A    between atoms: _754  and  _755
REMARK  294  A    between atoms: _758  and  _760
REMARK  295  A    between atoms: _760  and  _761
REMARK  296  A    between atoms: _760  and  _763
REMARK  297  A    between atoms: _763  and  _764
REMARK  298  A    between atoms: _766  and  _768
REMARK  299  A    between atoms: _768  and  _769
REMARK  300  A    between atoms: _768  and  _771
REMARK  301  A    between atoms: _771  and  _772
REMARK  302  A    between atoms: _778  and  _780
REMARK  303  A    between atoms: _780  and  _781
REMARK  304  A    between atoms: _780  and  _783
REMARK  305  A    between atoms: _783  and  _784
REMARK  306  A    between atoms: _784  and  _785
REMARK                            x       y       z     vdW  Elec       q    Type
REMARK                         _______ _______ _______ _____ _____    ______ ____
ROOT
ATOM      1  C   ASP A   1      34.724 -14.697  13.155  0.00  0.00    +0.239 C 
ATOM      2  N   LYS A   2      34.662 -15.362  14.300  0.00  0.00    -0.298 N 
ATOM      3  H   LYS A   2      34.482 -16.386  14.288  0.00  0.00    +0.150 HD
ATOM      4  O   ASP A   1      35.178 -13.560  13.072  0.00  0.00    -0.274 OA
ENDROOT
BRANCH   1   5
ATOM      5  CA  ASP A   1      34.198 -15.414  11.919  0.00  0.00    +0.156 C 
BRANCH   5   6
ATOM      6  N   ASP A   1      34.743 -16.773  11.785  0.00  0.00    -0.238 NA
ATOM      7  H   ASP A   1      34.301 -17.543  12.326  0.00  0.00    +0.142 HD
ENDBRANCH   5   6
BRANCH   5   8
ATOM      8  CB  ASP A   1      32.665 -15.432  11.993  0.00  0.00    +0.140 C 
BRANCH   8   9
ATOM      9  CG  ASP A   1      32.020 -15.949  10.728  0.00  0.00    +0.367 C 
ATOM     10  OD2 ASP A   1      31.091 -16.778  10.854  0.00  0.00    -0.246 OA
ATOM     11  OD1 ASP A   1      32.427 -15.538   9.621  0.00  0.00    -0.246 OA
ENDBRANCH   8   9
ENDBRANCH   5   8
ENDBRANCH   1   5
BRANCH   2  12
ATOM     12  CA  LYS A   2      34.843 -14.679  15.578  0.00  0.00    +0.137 C 
BRANCH  12  13
ATOM     13  C   LYS A   2      36.304 -14.481  16.027  0.00  0.00    +0.227 C 
ATOM     14  O   LYS A   2      36.632 -13.446  16.621  0.00  0.00    -0.286 OA
ENDBRANCH  12  13
BRANCH  12  15
ATOM     15  CB  LYS A   2      34.006 -15.358  16.676  0.00  0.00    +0.028 C 
BRANCH  15  16
ATOM     16  CG  LYS A   2      32.498 -15.357  16.433  0.00  0.00    -0.000 C 
BRANCH  16  17
ATOM     17  CD  LYS A   2      31.894 -13.953  16.371  0.00  0.00    -0.024 C 
BRANCH  17  18
ATOM     18  CE  LYS A   2      30.375 -14.010  16.227  0.00  0.00    -0.086 C 
BRANCH  18  19
ATOM     19  NZ  LYS A   2      29.804 -12.656  15.956  0.00  0.00    +0.380 N 
ATOM     20  HZ1 LYS A   2      30.039 -12.018  16.743  0.00  0.00    -0.089 HD
ATOM     21  HZ2 LYS A   2      28.771 -12.729  15.863  0.00  0.00    -0.089 HD
ATOM     22  HZ3 LYS A   2      30.207 -12.282  15.073  0.00  0.00    -0.089 HD
ENDBRANCH  18  19
ENDBRANCH  17  18
ENDBRANCH  16  17
ENDBRANCH  15  16
ENDBRANCH  12  15
ENDBRANCH   2  12
TORSDOF 11
REMARK  Name = ../refined-set-2016/4ca7/4ca7_pocket.pdb
REMARK  306 active torsions:
REMARK  status: ('A' for Active; 'I' for Inactive)
REMARK    1  A    between atoms: _1  and  _3
REMARK    2  A    between atoms: _3  and  _4
REMARK    3  A    between atoms: _3  and  _6
REMARK    4  A    between atoms: _6  and  _7
REMARK    5  A    between atoms: _7  and  _8
REMARK    6  A    between atoms: _8  and  _9
REMARK    7  A    between atoms: _9  and  _10
REMARK    8  A    between atoms: _14  and  _16
REMARK    9  A    between atoms: _16  and  _17
REMARK   10  A    between atoms: _16  and  _19
REMARK   11  A    between atoms: _19  and  _20
REMARK   12  A    between atoms: _20  and  _21
REMARK   13  A    between atoms: _24  and  _26
REMARK   14  A    between atoms: _26  and  _27
REMARK   15  A    between atoms: _26  and  _29
REMARK   16  A    between atoms: _29  and  _30
REMARK   17  A    between atoms: _30  and  _31
REMARK   18  A    between atoms: _34  and  _36
REMARK   19  A    between atoms: _36  and  _37
REMARK   20  A    between atoms: _36  and  _39
REMARK   21  A    between atoms: _39  and  _40
REMARK   22  A    between atoms: _45  and  _47
REMARK   23  A    between atoms: _47  and  _48
REMARK   24  A    between atoms: _47  and  _50
REMARK   25  A    between atoms: _50  and  _51
REMARK   26  A    between atoms: _61  and  _63
REMARK   27  A    between atoms: _63  and  _64
REMARK   28  A    between atoms: _63  and  _66
REMARK   29  A    between atoms: _66  and  _67
REMARK   30  A    between atoms: _67  and  _68
REMARK   31  A    between atoms: _73  and  _75
REMARK   32  A    between atoms: _75  and  _76
REMARK   33  A    between atoms: _75  and  _78
REMARK   34  A    between atoms: _78  and  _79
REMARK   35  A    between atoms: _79  and  _80
REMARK   36  A    between atoms: _85  and  _87
REMARK   37  A    between atoms: _87  and  _88
REMARK   38  A    between atoms: _87  and  _90
REMARK   39  A    between atoms: _90  and  _91
REMARK   40  A    between atoms: _93  and  _95
REMARK   41  A    between atoms: _95  and  _96
REMARK   42  A    between atoms: _95  and  _98
REMARK   43  A    between atoms: _101  and  _103
REMARK   44  A    between atoms: _103  and  _104
REMARK   45  A    between atoms: _103  and  _106
REMARK   46  A    between atoms: _108  and  _110
REMARK   47  A    between atoms: _110  and  _111
REMARK   48  A    between atoms: _110  and  _113
REMARK   49  A    between atoms: _113  and  _114
REMARK   50  A    between atoms: _119  and  _121
REMARK   51  A    between atoms: _121  and  _122
REMARK   52  A    between atoms: _125  and  _127
REMARK   53  A    between atoms: _127  and  _128
REMARK   54  A    between atoms: _127  and  _130
REMARK   55  A    between atoms: _130  and  _131
REMARK   56  A    between atoms: _133  and  _135
REMARK   57  A    between atoms: _135  and  _136
REMARK   58  A    between atoms: _139  and  _141
REMARK   59  A    between atoms: _141  and  _142
REMARK   60  A    between atoms: _141  and  _144
REMARK   61  A    between atoms: _144  and  _145
REMARK   62  A    between atoms: _155  and  _157
REMARK   63  A    between atoms: _157  and  _158
REMARK   64  A    between atoms: _157  and  _160
REMARK   65  A    between atoms: _160  and  _161
REMARK   66  A    between atoms: _164  and  _166
REMARK   67  A    between atoms: _166  and  _167
REMARK   68  A    between atoms: _166  and  _169
REMARK   69  A    between atoms: _169  and  _170
REMARK   70  A    between atoms: _175  and  _176
REMARK   71  A    between atoms: _178  and  _180
REMARK   72  A    between atoms: _180  and  _181
REMARK   73  A    between atoms: _180  and  _183
REMARK   74  A    between atoms: _183  and  _184
REMARK   75  A    between atoms: _184  and  _185
REMARK   76  A    between atoms: _185  and  _186
REMARK   77  A    between atoms: _195  and  _197
REMARK   78  A    between atoms: _197  and  _198
REMARK   79  A    between atoms: _197  and  _200
REMARK   80  A    between atoms: _200  and  _201
REMARK   81  A    between atoms: _204  and  _206
REMARK   82  A    between atoms: _206  and  _207
REMARK   83  A    between atoms: _206  and  _209
REMARK   84  A    between atoms: _209  and  _210
REMARK   85  A    between atoms: _210  and  _211
REMARK   86  A    between atoms: _211  and  _212
REMARK   87  A    between atoms: _212  and  _213
REMARK   88  A    between atoms: _217  and  _219
REMARK   89  A    between atoms: _219  and  _220
REMARK   90  A    between atoms: _219  and  _222
REMARK   91  A    between atoms: _222  and  _223
REMARK   92  A    between atoms: _223  and  _224
REMARK   93  A    between atoms: _229  and  _231
REMARK   94  A    between atoms: _231  and  _232
REMARK   95  A    between atoms: _231  and  _234
REMARK   96  A    between atoms: _234  and  _235
REMARK   97  A    between atoms: _235  and  _236
REMARK   98  A    between atoms: _236  and  _237
REMARK   99  A    between atoms: _246  and  _248
REMARK  100  A    between atoms: _248  and  _249
REMARK  101  A    between atoms: _248  and  _251
REMARK  102  A    between atoms: _251  and  _252
REMARK  103  A    between atoms: _252  and  _253
REMARK  104  A    between atoms: _258  and  _260
REMARK  105  A    between atoms: _260  and  _261
REMARK  106  A    between atoms: _260  and  _263
REMARK  107  A    between atoms: _263  and  _264
REMARK  108  A    between atoms: _267  and  _269
REMARK  109  A    between atoms: _269  and  _270
REMARK  110  A    between atoms: _269  and  _272
REMARK  111  A    between atoms: _272  and  _273
REMARK  112  A    between atoms: _273  and  _274
REMARK  113  A    between atoms: _279  and  _281
REMARK  114  A    between atoms: _281  and  _282
REMARK  115  A    between atoms: _281  and  _284
REMARK  116  A    between atoms: _284  and  _285
REMARK  117  A    between atoms: _288  and  _290
REMARK  118  A    between atoms: _290  and  _291
REMARK  119  A    between atoms: _290  and  _293
REMARK  120  A    between atoms: _293  and  _294
REMARK  121  A    between atoms: _300  and  _302
REMARK  122  A    between atoms: _302  and  _303
REMARK  123  A    between atoms: _302  and  _305
REMARK  124  A    between atoms: _305  and  _306
REMARK  125  A    between atoms: _309  and  _311
REMARK  126  A    between atoms: _311  and  _312
REMARK  127  A    between atoms: _311  and  _314
REMARK  128  A    between atoms: _317  and  _319
REMARK  129  A    between atoms: _319  and  _320
REMARK  130  A    between atoms: _319  and  _322
REMARK  131  A    between atoms: _322  and  _323
REMARK  132  A    between atoms: _328  and  _330
REMARK  133  A    between atoms: _341  and  _344
REMARK  134  A    between atoms: _344  and  _345
REMARK  135  A    between atoms: _345  and  _346
REMARK  136  A    between atoms: _351  and  _354
REMARK  137  A    between atoms: _354  and  _355
REMARK  138  A    between atoms: _365  and  _366
REMARK  139  A    between atoms: _374  and  _376
REMARK  140  A    between atoms: _376  and  _377
REMARK  141  A    between atoms: _376  and  _379
REMARK  142  A    between atoms: _379  and  _380
REMARK  143  A    between atoms: _383  and  _385
REMARK  144  A    between atoms: _385  and  _386
REMARK  145  A    between atoms: _385  and  _388
REMARK  146  A    between atoms: _388  and  _389
REMARK  147  A    between atoms: _394  and  _395
REMARK  148  A    between atoms: _397  and  _399
REMARK  149  A    between atoms: _399  and  _400
REMARK  150  A    between atoms: _399  and  _402
REMARK  151  A    between atoms: _402  and  _403
REMARK  152  A    between atoms: _409  and  _411
REMARK  153  A    between atoms: _411  and  _412
REMARK  154  A    between atoms: _411  and  _414
REMARK  155  A    between atoms: _414  and  _415
REMARK  156  A    between atoms: _420  and  _421
REMARK  157  A    between atoms: _423  and  _425
REMARK  158  A    between atoms: _425  and  _426
REMARK  159  A    between atoms: _425  and  _428
REMARK  160  A    between atoms: _428  and  _429
REMARK  161  A    between atoms: _429  and  _430
REMARK  162  A    between atoms: _430  and  _431
REMARK  163  A    between atoms: _440  and  _442
REMARK  164  A    between atoms: _442  and  _443
REMARK  165  A    between atoms: _442  and  _445
REMARK  166  A    between atoms: _445  and  _446
REMARK  167  A    between atoms: _449  and  _451
REMARK  168  A    between atoms: _451  and  _452
REMARK  169  A    between atoms: _454  and  _456
REMARK  170  A    between atoms: _456  and  _457
REMARK  171  A    between atoms: _456  and  _459
REMARK  172  A    between atoms: _459  and  _460
REMARK  173  A    between atoms: _466  and  _467
REMARK  174  A    between atoms: _472  and  _474
REMARK  175  A    between atoms: _474  and  _475
REMARK  176  A    between atoms: _477  and  _479
REMARK  177  A    between atoms: _479  and  _480
REMARK  178  A    between atoms: _479  and  _482
REMARK  179  A    between atoms: _482  and  _483
REMARK  180  A    between atoms: _489  and  _491
REMARK  181  A    between atoms: _491  and  _492
REMARK  182  A    between atoms: _491  and  _494
REMARK  183  A    between atoms: _494  and  _495
REMARK  184  A    between atoms: _500  and  _502
REMARK  185  A    between atoms: _502  and  _503
REMARK  186  A    between atoms: _502  and  _505
REMARK  187  A    between atoms: _505  and  _506
REMARK  188  A    between atoms: _506  and  _507
REMARK  189  A    between atoms: _507  and  _508
REMARK  190  A    between atoms: _508  and  ZN_790
REMARK  191  A    between atoms: _510  and  _512
REMARK  192  A    between atoms: _512  and  _513
REMARK  193  A    between atoms: _516  and  _518
REMARK  194  A    between atoms: _518  and  _519
REMARK  195  A    between atoms: _521  and  _523
REMARK  196  A    between atoms: _523  and  _524
REMARK  197  A    between atoms: _523  and  _526
REMARK  198  A    between atoms: _526  and  _527
REMARK  199  A    between atoms: _530  and  _532
REMARK  200  A    between atoms: _532  and  _533
REMARK  201  A    between atoms: _532  and  _535
REMARK  202  A    between atoms: _538  and  _540
REMARK  203  A    between atoms: _540  and  _541
REMARK  204  A    between atoms: _540  and  _543
REMARK  205  A    between atoms: _543  and  _544
REMARK  206  A    between atoms: _546  and  _548
REMARK  207  A    between atoms: _548  and  _549
REMARK  208  A    between atoms: _548  and  _551
REMARK  209  A    between atoms: _551  and  _552
REMARK  210  A    between atoms: _555  and  _557
REMARK  211  A    between atoms: _557  and  _558
REMARK  212  A    between atoms: _557  and  _560
REMARK  213  A    between atoms: _560  and  _561
REMARK  214  A    between atoms: _563  and  _565
REMARK  215  A    between atoms: _565  and  _566
REMARK  216  A    between atoms: _565  and  _568
REMARK  217  A    between atoms: _568  and  _569
REMARK  218  A    between atoms: _572  and  _574
REMARK  219  A    between atoms: _574  and  _575
REMARK  220  A    between atoms: _574  and  _577
REMARK  221  A    between atoms: _577  and  _578
REMARK  222  A    between atoms: _578  and  _579
REMARK  223  A    between atoms: _579  and  _580
REMARK  224  A    between atoms: _580  and  _581
REMARK  225  A    between atoms: _585  and  _587
REMARK  226  A    between atoms: _587  and  _588
REMARK  227  A    between atoms: _587  and  _590
REMARK  228  A    between atoms: _590  and  _591
REMARK  229  A    between atoms: _597  and  _599
REMARK  230  A    between atoms: _599  and  _600
REMARK  231  A    between atoms: _599  and  _602
REMARK  232  A    between atoms: _602  and  _603
REMARK  233  A    between atoms: _609  and  _611
REMARK  234  A    between atoms: _611  and  _612
REMARK  235  A    between atoms: _615  and  _617
REMARK  236  A    between atoms: _617  and  _618
REMARK  237  A    between atoms: _617  and  _620
REMARK  238  A    between atoms: _620  and  _621
REMARK  239  A    between atoms: _621  and  _622
REMARK  240  A    between atoms: _624  and  _626
REMARK  241  A    between atoms: _626  and  _627
REMARK  242  A    between atoms: _626  and  _629
REMARK  243  A    between atoms: _629  and  _630
REMARK  244  A    between atoms: _630  and  _631
REMARK  245  A    between atoms: _631  and  _632
REMARK  246  A    between atoms: _632  and  _633
REMARK  247  A    between atoms: _637  and  _639
REMARK  248  A    between atoms: _639  and  _640
REMARK  249  A    between atoms: _639  and  _642
REMARK  250  A    between atoms: _642  and  _643
REMARK  251  A    between atoms: _648  and  _649
REMARK  252  A    between atoms: _651  and  _653
REMARK  253  A    between atoms: _653  and  _654
REMARK  254  A    between atoms: _653  and  _656
REMARK  255  A    between atoms: _656  and  _657
REMARK  256  A    between atoms: _662  and  _664
REMARK  257  A    between atoms: _664  and  _665
REMARK  258  A    between atoms: _664  and  _667
REMARK  259  A    between atoms: _667  and  _668
REMARK  260  A    between atoms: _671  and  _673
REMARK  261  A    between atoms: _673  and  _674
REMARK  262  A    between atoms: _677  and  _679
REMARK  263  A    between atoms: _679  and  _680
REMARK  264  A    between atoms: _679  and  _682
REMARK  265  A    between atoms: _682  and  _683
REMARK  266  A    between atoms: _686  and  _688
REMARK  267  A    between atoms: _688  and  _689
REMARK  268  A    between atoms: _688  and  _691
REMARK  269  A    between atoms: _694  and  _696
REMARK  270  A    between atoms: _696  and  _697
REMARK  271  A    between atoms: _696  and  _699
REMARK  272  A    between atoms: _699  and  _700
REMARK  273  A    between atoms: _700  and  _701
REMARK  274  A    between atoms: _704  and  _706
REMARK  275  A    between atoms: _706  and  _707
REMARK  276  A    between atoms: _706  and  _709
REMARK  277  A    between atoms: _709  and  _710
REMARK  278  A    between atoms: _715  and  _716
REMARK  279  A    between atoms: _718  and  _720
REMARK  280  A    between atoms: _720  and  _721
REMARK  281  A    between atoms: _720  and  _723
REMARK  282  A    between atoms: _723  and  _724
REMARK  283  A    between atoms: _724  and  _725
REMARK  284  A    between atoms: _725  and  _726
REMARK  285  A    between atoms: _735  and  _737
REMARK  286  A    between atoms: _737  and  _738
REMARK  287  A    between atoms: _737  and  _740
REMARK  288  A    between atoms: _740  and  _741
REMARK  289  A    between atoms: _746  and  _747
REMARK  290  A    between atoms: _749  and  _751
REMARK  291  A    between atoms: _751  and  _752
REMARK  292  A    between atoms: _751  and  _754
REMARK  293  A    between atoms: _754  and  _755
REMARK  294  A    between atoms: _758  and  _760
REMARK  295  A    between atoms: _760  and  _761
REMARK  296  A    between atoms: _760  and  _763
REMARK  297  A    between atoms: _763  and  _764
REMARK  298  A    between atoms: _766  and  _768
REMARK  299  A    between atoms: _768  and  _769
REMARK  300  A    between atoms: _768  and  _771
REMARK  301  A    between atoms: _771  and  _772
REMARK  302  A    between atoms: _778  and  _780
REMARK  303  A    between atoms: _780  and  _781
REMARK  304  A    between atoms: _780  and  _783
REMARK  305  A    between atoms: _783  and  _784
REMARK  306  A    between atoms: _784  and  _785
REMARK                            x       y       z     vdW  Elec       q    Type
REMARK                         _______ _______ _______ _____ _____    ______ ____
ROOT
ATOM      1  CB  PHE A   1      36.618 -10.820  13.253  0.00  0.00    +0.051 C 
ENDROOT
BRANCH   1   2
ATOM      2  CG  PHE A   1      36.074  -9.422  13.034  0.00  0.00    -0.020 A 
ATOM      3  CD2 PHE A   1      35.802  -8.592  14.112  0.00  0.00    -0.004 A 
ATOM      4  CE2 PHE A   1      35.270  -7.318  13.925  0.00  0.00    -0.000 A 
ATOM      5  CZ  PHE A   1      35.019  -6.850  12.645  0.00  0.00    -0.000 A 
ATOM      6  CE1 PHE A   1      35.290  -7.661  11.549  0.00  0.00    -0.000 A 
ATOM      7  CD1 PHE A   1      35.808  -8.947  11.744  0.00  0.00    -0.004 A 
ENDBRANCH   1   2
BRANCH   1   8
ATOM      8  CA  PHE A   1      38.079 -11.004  12.829  0.00  0.00    +0.137 C 
BRANCH   8   9
ATOM      9  N   PHE A   1      38.405 -12.441  12.829  0.00  0.00    -0.239 NA
ATOM     10  H   PHE A   1      37.656 -13.117  13.084  0.00  0.00    +0.142 HD
ENDBRANCH   8   9
BRANCH   8  11
ATOM     11  C   PHE A   1      38.944 -10.135  13.732  0.00  0.00    +0.224 C 
ATOM     12  O   PHE A   1      39.155  -8.961  13.447  0.00  0.00    -0.287 OA
ENDBRANCH   8  11
ENDBRANCH   1   8
TORSDOF 4
REMARK  Name = ../refined-set-2016/4ca7/4ca7_pocket.pdb
REMARK  306 active torsions:
REMARK  status: ('A' for Active; 'I' for Inactive)
REMARK    1  A    between atoms: _1  and  _3
REMARK    2  A    between atoms: _3  and  _4
REMARK    3  A    between atoms: _3  and  _6
REMARK    4  A    between atoms: _6  and  _7
REMARK    5  A    between atoms: _7  and  _8
REMARK    6  A    between atoms: _8  and  _9
REMARK    7  A    between atoms: _9  and  _10
REMARK    8  A    between atoms: _14  and  _16
REMARK    9  A    between atoms: _16  and  _17
REMARK   10  A    between atoms: _16  and  _19
REMARK   11  A    between atoms: _19  and  _20
REMARK   12  A    between atoms: _20  and  _21
REMARK   13  A    between atoms: _24  and  _26
REMARK   14  A    between atoms: _26  and  _27
REMARK   15  A    between atoms: _26  and  _29
REMARK   16  A    between atoms: _29  and  _30
REMARK   17  A    between atoms: _30  and  _31
REMARK   18  A    between atoms: _34  and  _36
REMARK   19  A    between atoms: _36  and  _37
REMARK   20  A    between atoms: _36  and  _39
REMARK   21  A    between atoms: _39  and  _40
REMARK   22  A    between atoms: _45  and  _47
REMARK   23  A    between atoms: _47  and  _48
REMARK   24  A    between atoms: _47  and  _50
REMARK   25  A    between atoms: _50  and  _51
REMARK   26  A    between atoms: _61  and  _63
REMARK   27  A    between atoms: _63  and  _64
REMARK   28  A    between atoms: _63  and  _66
REMARK   29  A    between atoms: _66  and  _67
REMARK   30  A    between atoms: _67  and  _68
REMARK   31  A    between atoms: _73  and  _75
REMARK   32  A    between atoms: _75  and  _76
REMARK   33  A    between atoms: _75  and  _78
REMARK   34  A    between atoms: _78  and  _79
REMARK   35  A    between atoms: _79  and  _80
REMARK   36  A    between atoms: _85  and  _87
REMARK   37  A    between atoms: _87  and  _88
REMARK   38  A    between atoms: _87  and  _90
REMARK   39  A    between atoms: _90  and  _91
REMARK   40  A    between atoms: _93  and  _95
REMARK   41  A    between atoms: _95  and  _96
REMARK   42  A    between atoms: _95  and  _98
REMARK   43  A    between atoms: _101  and  _103
REMARK   44  A    between atoms: _103  and  _104
REMARK   45  A    between atoms: _103  and  _106
REMARK   46  A    between atoms: _108  and  _110
REMARK   47  A    between atoms: _110  and  _111
REMARK   48  A    between atoms: _110  and  _113
REMARK   49  A    between atoms: _113  and  _114
REMARK   50  A    between atoms: _119  and  _121
REMARK   51  A    between atoms: _121  and  _122
REMARK   52  A    between atoms: _125  and  _127
REMARK   53  A    between atoms: _127  and  _128
REMARK   54  A    between atoms: _127  and  _130
REMARK   55  A    between atoms: _130  and  _131
REMARK   56  A    between atoms: _133  and  _135
REMARK   57  A    between atoms: _135  and  _136
REMARK   58  A    between atoms: _139  and  _141
REMARK   59  A    between atoms: _141  and  _142
REMARK   60  A    between atoms: _141  and  _144
REMARK   61  A    between atoms: _144  and  _145
REMARK   62  A    between atoms: _155  and  _157
REMARK   63  A    between atoms: _157  and  _158
REMARK   64  A    between atoms: _157  and  _160
REMARK   65  A    between atoms: _160  and  _161
REMARK   66  A    between atoms: _164  and  _166
REMARK   67  A    between atoms: _166  and  _167
REMARK   68  A    between atoms: _166  and  _169
REMARK   69  A    between atoms: _169  and  _170
REMARK   70  A    between atoms: _175  and  _176
REMARK   71  A    between atoms: _178  and  _180
REMARK   72  A    between atoms: _180  and  _181
REMARK   73  A    between atoms: _180  and  _183
REMARK   74  A    between atoms: _183  and  _184
REMARK   75  A    between atoms: _184  and  _185
REMARK   76  A    between atoms: _185  and  _186
REMARK   77  A    between atoms: _195  and  _197
REMARK   78  A    between atoms: _197  and  _198
REMARK   79  A    between atoms: _197  and  _200
REMARK   80  A    between atoms: _200  and  _201
REMARK   81  A    between atoms: _204  and  _206
REMARK   82  A    between atoms: _206  and  _207
REMARK   83  A    between atoms: _206  and  _209
REMARK   84  A    between atoms: _209  and  _210
REMARK   85  A    between atoms: _210  and  _211
REMARK   86  A    between atoms: _211  and  _212
REMARK   87  A    between atoms: _212  and  _213
REMARK   88  A    between atoms: _217  and  _219
REMARK   89  A    between atoms: _219  and  _220
REMARK   90  A    between atoms: _219  and  _222
REMARK   91  A    between atoms: _222  and  _223
REMARK   92  A    between atoms: _223  and  _224
REMARK   93  A    between atoms: _229  and  _231
REMARK   94  A    between atoms: _231  and  _232
REMARK   95  A    between atoms: _231  and  _234
REMARK   96  A    between atoms: _234  and  _235
REMARK   97  A    between atoms: _235  and  _236
REMARK   98  A    between atoms: _236  and  _237
REMARK   99  A    between atoms: _246  and  _248
REMARK  100  A    between atoms: _248  and  _249
REMARK  101  A    between atoms: _248  and  _251
REMARK  102  A    between atoms: _251  and  _252
REMARK  103  A    between atoms: _252  and  _253
REMARK  104  A    between atoms: _258  and  _260
REMARK  105  A    between atoms: _260  and  _261
REMARK  106  A    between atoms: _260  and  _263
REMARK  107  A    between atoms: _263  and  _264
REMARK  108  A    between atoms: _267  and  _269
REMARK  109  A    between atoms: _269  and  _270
REMARK  110  A    between atoms: _269  and  _272
REMARK  111  A    between atoms: _272  and  _273
REMARK  112  A    between atoms: _273  and  _274
REMARK  113  A    between atoms: _279  and  _281
REMARK  114  A    between atoms: _281  and  _282
REMARK  115  A    between atoms: _281  and  _284
REMARK  116  A    between atoms: _284  and  _285
REMARK  117  A    between atoms: _288  and  _290
REMARK  118  A    between atoms: _290  and  _291
REMARK  119  A    between atoms: _290  and  _293
REMARK  120  A    between atoms: _293  and  _294
REMARK  121  A    between atoms: _300  and  _302
REMARK  122  A    between atoms: _302  and  _303
REMARK  123  A    between atoms: _302  and  _305
REMARK  124  A    between atoms: _305  and  _306
REMARK  125  A    between atoms: _309  and  _311
REMARK  126  A    between atoms: _311  and  _312
REMARK  127  A    between atoms: _311  and  _314
REMARK  128  A    between atoms: _317  and  _319
REMARK  129  A    between atoms: _319  and  _320
REMARK  130  A    between atoms: _319  and  _322
REMARK  131  A    between atoms: _322  and  _323
REMARK  132  A    between atoms: _328  and  _330
REMARK  133  A    between atoms: _341  and  _344
REMARK  134  A    between atoms: _344  and  _345
REMARK  135  A    between atoms: _345  and  _346
REMARK  136  A    between atoms: _351  and  _354
REMARK  137  A    between atoms: _354  and  _355
REMARK  138  A    between atoms: _365  and  _366
REMARK  139  A    between atoms: _374  and  _376
REMARK  140  A    between atoms: _376  and  _377
REMARK  141  A    between atoms: _376  and  _379
REMARK  142  A    between atoms: _379  and  _380
REMARK  143  A    between atoms: _383  and  _385
REMARK  144  A    between atoms: _385  and  _386
REMARK  145  A    between atoms: _385  and  _388
REMARK  146  A    between atoms: _388  and  _389
REMARK  147  A    between atoms: _394  and  _395
REMARK  148  A    between atoms: _397  and  _399
REMARK  149  A    between atoms: _399  and  _400
REMARK  150  A    between atoms: _399  and  _402
REMARK  151  A    between atoms: _402  and  _403
REMARK  152  A    between atoms: _409  and  _411
REMARK  153  A    between atoms: _411  and  _412
REMARK  154  A    between atoms: _411  and  _414
REMARK  155  A    between atoms: _414  and  _415
REMARK  156  A    between atoms: _420  and  _421
REMARK  157  A    between atoms: _423  and  _425
REMARK  158  A    between atoms: _425  and  _426
REMARK  159  A    between atoms: _425  and  _428
REMARK  160  A    between atoms: _428  and  _429
REMARK  161  A    between atoms: _429  and  _430
REMARK  162  A    between atoms: _430  and  _431
REMARK  163  A    between atoms: _440  and  _442
REMARK  164  A    between atoms: _442  and  _443
REMARK  165  A    between atoms: _442  and  _445
REMARK  166  A    between atoms: _445  and  _446
REMARK  167  A    between atoms: _449  and  _451
REMARK  168  A    between atoms: _451  and  _452
REMARK  169  A    between atoms: _454  and  _456
REMARK  170  A    between atoms: _456  and  _457
REMARK  171  A    between atoms: _456  and  _459
REMARK  172  A    between atoms: _459  and  _460
REMARK  173  A    between atoms: _466  and  _467
REMARK  174  A    between atoms: _472  and  _474
REMARK  175  A    between atoms: _474  and  _475
REMARK  176  A    between atoms: _477  and  _479
REMARK  177  A    between atoms: _479  and  _480
REMARK  178  A    between atoms: _479  and  _482
REMARK  179  A    between atoms: _482  and  _483
REMARK  180  A    between atoms: _489  and  _491
REMARK  181  A    between atoms: _491  and  _492
REMARK  182  A    between atoms: _491  and  _494
REMARK  183  A    between atoms: _494  and  _495
REMARK  184  A    between atoms: _500  and  _502
REMARK  185  A    between atoms: _502  and  _503
REMARK  186  A    between atoms: _502  and  _505
REMARK  187  A    between atoms: _505  and  _506
REMARK  188  A    between atoms: _506  and  _507
REMARK  189  A    between atoms: _507  and  _508
REMARK  190  A    between atoms: _508  and  ZN_790
REMARK  191  A    between atoms: _510  and  _512
REMARK  192  A    between atoms: _512  and  _513
REMARK  193  A    between atoms: _516  and  _518
REMARK  194  A    between atoms: _518  and  _519
REMARK  195  A    between atoms: _521  and  _523
REMARK  196  A    between atoms: _523  and  _524
REMARK  197  A    between atoms: _523  and  _526
REMARK  198  A    between atoms: _526  and  _527
REMARK  199  A    between atoms: _530  and  _532
REMARK  200  A    between atoms: _532  and  _533
REMARK  201  A    between atoms: _532  and  _535
REMARK  202  A    between atoms: _538  and  _540
REMARK  203  A    between atoms: _540  and  _541
REMARK  204  A    between atoms: _540  and  _543
REMARK  205  A    between atoms: _543  and  _544
REMARK  206  A    between atoms: _546  and  _548
REMARK  207  A    between atoms: _548  and  _549
REMARK  208  A    between atoms: _548  and  _551
REMARK  209  A    between atoms: _551  and  _552
REMARK  210  A    between atoms: _555  and  _557
REMARK  211  A    between atoms: _557  and  _558
REMARK  212  A    between atoms: _557  and  _560
REMARK  213  A    between atoms: _560  and  _561
REMARK  214  A    between atoms: _563  and  _565
REMARK  215  A    between atoms: _565  and  _566
REMARK  216  A    between atoms: _565  and  _568
REMARK  217  A    between atoms: _568  and  _569
REMARK  218  A    between atoms: _572  and  _574
REMARK  219  A    between atoms: _574  and  _575
REMARK  220  A    between atoms: _574  and  _577
REMARK  221  A    between atoms: _577  and  _578
REMARK  222  A    between atoms: _578  and  _579
REMARK  223  A    between atoms: _579  and  _580
REMARK  224  A    between atoms: _580  and  _581
REMARK  225  A    between atoms: _585  and  _587
REMARK  226  A    between atoms: _587  and  _588
REMARK  227  A    between atoms: _587  and  _590
REMARK  228  A    between atoms: _590  and  _591
REMARK  229  A    between atoms: _597  and  _599
REMARK  230  A    between atoms: _599  and  _600
REMARK  231  A    between atoms: _599  and  _602
REMARK  232  A    between atoms: _602  and  _603
REMARK  233  A    between atoms: _609  and  _611
REMARK  234  A    between atoms: _611  and  _612
REMARK  235  A    between atoms: _615  and  _617
REMARK  236  A    between atoms: _617  and  _618
REMARK  237  A    between atoms: _617  and  _620
REMARK  238  A    between atoms: _620  and  _621
REMARK  239  A    between atoms: _621  and  _622
REMARK  240  A    between atoms: _624  and  _626
REMARK  241  A    between atoms: _626  and  _627
REMARK  242  A    between atoms: _626  and  _629
REMARK  243  A    between atoms: _629  and  _630
REMARK  244  A    between atoms: _630  and  _631
REMARK  245  A    between atoms: _631  and  _632
REMARK  246  A    between atoms: _632  and  _633
REMARK  247  A    between atoms: _637  and  _639
REMARK  248  A    between atoms: _639  and  _640
REMARK  249  A    between atoms: _639  and  _642
REMARK  250  A    between atoms: _642  and  _643
REMARK  251  A    between atoms: _648  and  _649
REMARK  252  A    between atoms: _651  and  _653
REMARK  253  A    between atoms: _653  and  _654
REMARK  254  A    between atoms: _653  and  _656
REMARK  255  A    between atoms: _656  and  _657
REMARK  256  A    between atoms: _662  and  _664
REMARK  257  A    between atoms: _664  and  _665
REMARK  258  A    between atoms: _664  and  _667
REMARK  259  A    between atoms: _667  and  _668
REMARK  260  A    between atoms: _671  and  _673
REMARK  261  A    between atoms: _673  and  _674
REMARK  262  A    between atoms: _677  and  _679
REMARK  263  A    between atoms: _679  and  _680
REMARK  264  A    between atoms: _679  and  _682
REMARK  265  A    between atoms: _682  and  _683
REMARK  266  A    between atoms: _686  and  _688
REMARK  267  A    between atoms: _688  and  _689
REMARK  268  A    between atoms: _688  and  _691
REMARK  269  A    between atoms: _694  and  _696
REMARK  270  A    between atoms: _696  and  _697
REMARK  271  A    between atoms: _696  and  _699
REMARK  272  A    between atoms: _699  and  _700
REMARK  273  A    between atoms: _700  and  _701
REMARK  274  A    between atoms: _704  and  _706
REMARK  275  A    between atoms: _706  and  _707
REMARK  276  A    between atoms: _706  and  _709
REMARK  277  A    between atoms: _709  and  _710
REMARK  278  A    between atoms: _715  and  _716
REMARK  279  A    between atoms: _718  and  _720
REMARK  280  A    between atoms: _720  and  _721
REMARK  281  A    between atoms: _720  and  _723
REMARK  282  A    between atoms: _723  and  _724
REMARK  283  A    between atoms: _724  and  _725
REMARK  284  A    between atoms: _725  and  _726
REMARK  285  A    between atoms: _735  and  _737
REMARK  286  A    between atoms: _737  and  _738
REMARK  287  A    between atoms: _737  and  _740
REMARK  288  A    between atoms: _740  and  _741
REMARK  289  A    between atoms: _746  and  _747
REMARK  290  A    between atoms: _749  and  _751
REMARK  291  A    between atoms: _751  and  _752
REMARK  292  A    between atoms: _751  and  _754
REMARK  293  A    between atoms: _754  and  _755
REMARK  294  A    between atoms: _758  and  _760
REMARK  295  A    between atoms: _760  and  _761
REMARK  296  A    between atoms: _760  and  _763
REMARK  297  A    between atoms: _763  and  _764
REMARK  298  A    between atoms: _766  and  _768
REMARK  299  A    between atoms: _768  and  _769
REMARK  300  A    between atoms: _768  and  _771
REMARK  301  A    between atoms: _771  and  _772
REMARK  302  A    between atoms: _778  and  _780
REMARK  303  A    between atoms: _780  and  _781
REMARK  304  A    between atoms: _780  and  _783
REMARK  305  A    between atoms: _783  and  _784
REMARK  306  A    between atoms: _784  and  _785
REMARK                            x       y       z     vdW  Elec       q    Type
REMARK                         _______ _______ _______ _____ _____    ______ ____
ROOT
ATOM      1  CA  PHE A   1      41.575  -7.620  11.236  0.00  0.00    +0.149 C 
ENDROOT
BRANCH   1   2
ATOM      2  C   PHE A   1      41.094  -6.267  11.789  0.00  0.00    +0.239 C 
ATOM      3  N   ALA A   2      40.232  -6.327  12.810  0.00  0.00    -0.298 N 
ATOM      4  H   ALA A   2      40.023  -7.253  13.235  0.00  0.00    +0.150 HD
ATOM      5  O   PHE A   1      41.518  -5.196  11.325  0.00  0.00    -0.274 OA
BRANCH   3   6
ATOM      6  CA  ALA A   2      39.574  -5.140  13.350  0.00  0.00    +0.137 C 
ATOM      7  CB  ALA A   2      38.459  -5.543  14.303  0.00  0.00    +0.030 C 
BRANCH   6   8
ATOM      8  C   ALA A   2      40.593  -4.253  14.058  0.00  0.00    +0.227 C 
ATOM      9  O   ALA A   2      40.540  -3.030  13.932  0.00  0.00    -0.286 OA
ENDBRANCH   6   8
ENDBRANCH   3   6
ENDBRANCH   1   2
BRANCH   1  10
ATOM     10  N   PHE A   1      42.076  -8.513  12.287  0.00  0.00    -0.238 NA
ATOM     11  H   PHE A   1      41.699  -9.478  12.374  0.00  0.00    +0.142 HD
ENDBRANCH   1  10
BRANCH   1  12
ATOM     12  CB  PHE A   1      40.436  -8.245  10.423  0.00  0.00    +0.053 C 
BRANCH  12  13
ATOM     13  CG  PHE A   1      39.798  -7.262   9.487  0.00  0.00    -0.020 A 
ATOM     14  CD2 PHE A   1      38.681  -6.521   9.881  0.00  0.00    -0.004 A 
ATOM     15  CE2 PHE A   1      38.123  -5.574   9.030  0.00  0.00    -0.000 A 
ATOM     16  CZ  PHE A   1      38.680  -5.355   7.775  0.00  0.00    -0.000 A 
ATOM     17  CE1 PHE A   1      39.800  -6.076   7.385  0.00  0.00    -0.000 A 
ATOM     18  CD1 PHE A   1      40.356  -7.017   8.236  0.00  0.00    -0.004 A 
ENDBRANCH  12  13
ENDBRANCH   1  12
TORSDOF 6
REMARK  Name = ../refined-set-2016/4ca7/4ca7_pocket.pdb
REMARK  306 active torsions:
REMARK  status: ('A' for Active; 'I' for Inactive)
REMARK    1  A    between atoms: _1  and  _3
REMARK    2  A    between atoms: _3  and  _4
REMARK    3  A    between atoms: _3  and  _6
REMARK    4  A    between atoms: _6  and  _7
REMARK    5  A    between atoms: _7  and  _8
REMARK    6  A    between atoms: _8  and  _9
REMARK    7  A    between atoms: _9  and  _10
REMARK    8  A    between atoms: _14  and  _16
REMARK    9  A    between atoms: _16  and  _17
REMARK   10  A    between atoms: _16  and  _19
REMARK   11  A    between atoms: _19  and  _20
REMARK   12  A    between atoms: _20  and  _21
REMARK   13  A    between atoms: _24  and  _26
REMARK   14  A    between atoms: _26  and  _27
REMARK   15  A    between atoms: _26  and  _29
REMARK   16  A    between atoms: _29  and  _30
REMARK   17  A    between atoms: _30  and  _31
REMARK   18  A    between atoms: _34  and  _36
REMARK   19  A    between atoms: _36  and  _37
REMARK   20  A    between atoms: _36  and  _39
REMARK   21  A    between atoms: _39  and  _40
REMARK   22  A    between atoms: _45  and  _47
REMARK   23  A    between atoms: _47  and  _48
REMARK   24  A    between atoms: _47  and  _50
REMARK   25  A    between atoms: _50  and  _51
REMARK   26  A    between atoms: _61  and  _63
REMARK   27  A    between atoms: _63  and  _64
REMARK   28  A    between atoms: _63  and  _66
REMARK   29  A    between atoms: _66  and  _67
REMARK   30  A    between atoms: _67  and  _68
REMARK   31  A    between atoms: _73  and  _75
REMARK   32  A    between atoms: _75  and  _76
REMARK   33  A    between atoms: _75  and  _78
REMARK   34  A    between atoms: _78  and  _79
REMARK   35  A    between atoms: _79  and  _80
REMARK   36  A    between atoms: _85  and  _87
REMARK   37  A    between atoms: _87  and  _88
REMARK   38  A    between atoms: _87  and  _90
REMARK   39  A    between atoms: _90  and  _91
REMARK   40  A    between atoms: _93  and  _95
REMARK   41  A    between atoms: _95  and  _96
REMARK   42  A    between atoms: _95  and  _98
REMARK   43  A    between atoms: _101  and  _103
REMARK   44  A    between atoms: _103  and  _104
REMARK   45  A    between atoms: _103  and  _106
REMARK   46  A    between atoms: _108  and  _110
REMARK   47  A    between atoms: _110  and  _111
REMARK   48  A    between atoms: _110  and  _113
REMARK   49  A    between atoms: _113  and  _114
REMARK   50  A    between atoms: _119  and  _121
REMARK   51  A    between atoms: _121  and  _122
REMARK   52  A    between atoms: _125  and  _127
REMARK   53  A    between atoms: _127  and  _128
REMARK   54  A    between atoms: _127  and  _130
REMARK   55  A    between atoms: _130  and  _131
REMARK   56  A    between atoms: _133  and  _135
REMARK   57  A    between atoms: _135  and  _136
REMARK   58  A    between atoms: _139  and  _141
REMARK   59  A    between atoms: _141  and  _142
REMARK   60  A    between atoms: _141  and  _144
REMARK   61  A    between atoms: _144  and  _145
REMARK   62  A    between atoms: _155  and  _157
REMARK   63  A    between atoms: _157  and  _158
REMARK   64  A    between atoms: _157  and  _160
REMARK   65  A    between atoms: _160  and  _161
REMARK   66  A    between atoms: _164  and  _166
REMARK   67  A    between atoms: _166  and  _167
REMARK   68  A    between atoms: _166  and  _169
REMARK   69  A    between atoms: _169  and  _170
REMARK   70  A    between atoms: _175  and  _176
REMARK   71  A    between atoms: _178  and  _180
REMARK   72  A    between atoms: _180  and  _181
REMARK   73  A    between atoms: _180  and  _183
REMARK   74  A    between atoms: _183  and  _184
REMARK   75  A    between atoms: _184  and  _185
REMARK   76  A    between atoms: _185  and  _186
REMARK   77  A    between atoms: _195  and  _197
REMARK   78  A    between atoms: _197  and  _198
REMARK   79  A    between atoms: _197  and  _200
REMARK   80  A    between atoms: _200  and  _201
REMARK   81  A    between atoms: _204  and  _206
REMARK   82  A    between atoms: _206  and  _207
REMARK   83  A    between atoms: _206  and  _209
REMARK   84  A    between atoms: _209  and  _210
REMARK   85  A    between atoms: _210  and  _211
REMARK   86  A    between atoms: _211  and  _212
REMARK   87  A    between atoms: _212  and  _213
REMARK   88  A    between atoms: _217  and  _219
REMARK   89  A    between atoms: _219  and  _220
REMARK   90  A    between atoms: _219  and  _222
REMARK   91  A    between atoms: _222  and  _223
REMARK   92  A    between atoms: _223  and  _224
REMARK   93  A    between atoms: _229  and  _231
REMARK   94  A    between atoms: _231  and  _232
REMARK   95  A    between atoms: _231  and  _234
REMARK   96  A    between atoms: _234  and  _235
REMARK   97  A    between atoms: _235  and  _236
REMARK   98  A    between atoms: _236  and  _237
REMARK   99  A    between atoms: _246  and  _248
REMARK  100  A    between atoms: _248  and  _249
REMARK  101  A    between atoms: _248  and  _251
REMARK  102  A    between atoms: _251  and  _252
REMARK  103  A    between atoms: _252  and  _253
REMARK  104  A    between atoms: _258  and  _260
REMARK  105  A    between atoms: _260  and  _261
REMARK  106  A    between atoms: _260  and  _263
REMARK  107  A    between atoms: _263  and  _264
REMARK  108  A    between atoms: _267  and  _269
REMARK  109  A    between atoms: _269  and  _270
REMARK  110  A    between atoms: _269  and  _272
REMARK  111  A    between atoms: _272  and  _273
REMARK  112  A    between atoms: _273  and  _274
REMARK  113  A    between atoms: _279  and  _281
REMARK  114  A    between atoms: _281  and  _282
REMARK  115  A    between atoms: _281  and  _284
REMARK  116  A    between atoms: _284  and  _285
REMARK  117  A    between atoms: _288  and  _290
REMARK  118  A    between atoms: _290  and  _291
REMARK  119  A    between atoms: _290  and  _293
REMARK  120  A    between atoms: _293  and  _294
REMARK  121  A    between atoms: _300  and  _302
REMARK  122  A    between atoms: _302  and  _303
REMARK  123  A    between atoms: _302  and  _305
REMARK  124  A    between atoms: _305  and  _306
REMARK  125  A    between atoms: _309  and  _311
REMARK  126  A    between atoms: _311  and  _312
REMARK  127  A    between atoms: _311  and  _314
REMARK  128  A    between atoms: _317  and  _319
REMARK  129  A    between atoms: _319  and  _320
REMARK  130  A    between atoms: _319  and  _322
REMARK  131  A    between atoms: _322  and  _323
REMARK  132  A    between atoms: _328  and  _330
REMARK  133  A    between atoms: _341  and  _344
REMARK  134  A    between atoms: _344  and  _345
REMARK  135  A    between atoms: _345  and  _346
REMARK  136  A    between atoms: _351  and  _354
REMARK  137  A    between atoms: _354  and  _355
REMARK  138  A    between atoms: _365  and  _366
REMARK  139  A    between atoms: _374  and  _376
REMARK  140  A    between atoms: _376  and  _377
REMARK  141  A    between atoms: _376  and  _379
REMARK  142  A    between atoms: _379  and  _380
REMARK  143  A    between atoms: _383  and  _385
REMARK  144  A    between atoms: _385  and  _386
REMARK  145  A    between atoms: _385  and  _388
REMARK  146  A    between atoms: _388  and  _389
REMARK  147  A    between atoms: _394  and  _395
REMARK  148  A    between atoms: _397  and  _399
REMARK  149  A    between atoms: _399  and  _400
REMARK  150  A    between atoms: _399  and  _402
REMARK  151  A    between atoms: _402  and  _403
REMARK  152  A    between atoms: _409  and  _411
REMARK  153  A    between atoms: _411  and  _412
REMARK  154  A    between atoms: _411  and  _414
REMARK  155  A    between atoms: _414  and  _415
REMARK  156  A    between atoms: _420  and  _421
REMARK  157  A    between atoms: _423  and  _425
REMARK  158  A    between atoms: _425  and  _426
REMARK  159  A    between atoms: _425  and  _428
REMARK  160  A    between atoms: _428  and  _429
REMARK  161  A    between atoms: _429  and  _430
REMARK  162  A    between atoms: _430  and  _431
REMARK  163  A    between atoms: _440  and  _442
REMARK  164  A    between atoms: _442  and  _443
REMARK  165  A    between atoms: _442  and  _445
REMARK  166  A    between atoms: _445  and  _446
REMARK  167  A    between atoms: _449  and  _451
REMARK  168  A    between atoms: _451  and  _452
REMARK  169  A    between atoms: _454  and  _456
REMARK  170  A    between atoms: _456  and  _457
REMARK  171  A    between atoms: _456  and  _459
REMARK  172  A    between atoms: _459  and  _460
REMARK  173  A    between atoms: _466  and  _467
REMARK  174  A    between atoms: _472  and  _474
REMARK  175  A    between atoms: _474  and  _475
REMARK  176  A    between atoms: _477  and  _479
REMARK  177  A    between atoms: _479  and  _480
REMARK  178  A    between atoms: _479  and  _482
REMARK  179  A    between atoms: _482  and  _483
REMARK  180  A    between atoms: _489  and  _491
REMARK  181  A    between atoms: _491  and  _492
REMARK  182  A    between atoms: _491  and  _494
REMARK  183  A    between atoms: _494  and  _495
REMARK  184  A    between atoms: _500  and  _502
REMARK  185  A    between atoms: _502  and  _503
REMARK  186  A    between atoms: _502  and  _505
REMARK  187  A    between atoms: _505  and  _506
REMARK  188  A    between atoms: _506  and  _507
REMARK  189  A    between atoms: _507  and  _508
REMARK  190  A    between atoms: _508  and  ZN_790
REMARK  191  A    between atoms: _510  and  _512
REMARK  192  A    between atoms: _512  and  _513
REMARK  193  A    between atoms: _516  and  _518
REMARK  194  A    between atoms: _518  and  _519
REMARK  195  A    between atoms: _521  and  _523
REMARK  196  A    between atoms: _523  and  _524
REMARK  197  A    between atoms: _523  and  _526
REMARK  198  A    between atoms: _526  and  _527
REMARK  199  A    between atoms: _530  and  _532
REMARK  200  A    between atoms: _532  and  _533
REMARK  201  A    between atoms: _532  and  _535
REMARK  202  A    between atoms: _538  and  _540
REMARK  203  A    between atoms: _540  and  _541
REMARK  204  A    between atoms: _540  and  _543
REMARK  205  A    between atoms: _543  and  _544
REMARK  206  A    between atoms: _546  and  _548
REMARK  207  A    between atoms: _548  and  _549
REMARK  208  A    between atoms: _548  and  _551
REMARK  209  A    between atoms: _551  and  _552
REMARK  210  A    between atoms: _555  and  _557
REMARK  211  A    between atoms: _557  and  _558
REMARK  212  A    between atoms: _557  and  _560
REMARK  213  A    between atoms: _560  and  _561
REMARK  214  A    between atoms: _563  and  _565
REMARK  215  A    between atoms: _565  and  _566
REMARK  216  A    between atoms: _565  and  _568
REMARK  217  A    between atoms: _568  and  _569
REMARK  218  A    between atoms: _572  and  _574
REMARK  219  A    between atoms: _574  and  _575
REMARK  220  A    between atoms: _574  and  _577
REMARK  221  A    between atoms: _577  and  _578
REMARK  222  A    between atoms: _578  and  _579
REMARK  223  A    between atoms: _579  and  _580
REMARK  224  A    between atoms: _580  and  _581
REMARK  225  A    between atoms: _585  and  _587
REMARK  226  A    between atoms: _587  and  _588
REMARK  227  A    between atoms: _587  and  _590
REMARK  228  A    between atoms: _590  and  _591
REMARK  229  A    between atoms: _597  and  _599
REMARK  230  A    between atoms: _599  and  _600
REMARK  231  A    between atoms: _599  and  _602
REMARK  232  A    between atoms: _602  and  _603
REMARK  233  A    between atoms: _609  and  _611
REMARK  234  A    between atoms: _611  and  _612
REMARK  235  A    between atoms: _615  and  _617
REMARK  236  A    between atoms: _617  and  _618
REMARK  237  A    between atoms: _617  and  _620
REMARK  238  A    between atoms: _620  and  _621
REMARK  239  A    between atoms: _621  and  _622
REMARK  240  A    between atoms: _624  and  _626
REMARK  241  A    between atoms: _626  and  _627
REMARK  242  A    between atoms: _626  and  _629
REMARK  243  A    between atoms: _629  and  _630
REMARK  244  A    between atoms: _630  and  _631
REMARK  245  A    between atoms: _631  and  _632
REMARK  246  A    between atoms: _632  and  _633
REMARK  247  A    between atoms: _637  and  _639
REMARK  248  A    between atoms: _639  and  _640
REMARK  249  A    between atoms: _639  and  _642
REMARK  250  A    between atoms: _642  and  _643
REMARK  251  A    between atoms: _648  and  _649
REMARK  252  A    between atoms: _651  and  _653
REMARK  253  A    between atoms: _653  and  _654
REMARK  254  A    between atoms: _653  and  _656
REMARK  255  A    between atoms: _656  and  _657
REMARK  256  A    between atoms: _662  and  _664
REMARK  257  A    between atoms: _664  and  _665
REMARK  258  A    between atoms: _664  and  _667
REMARK  259  A    between atoms: _667  and  _668
REMARK  260  A    between atoms: _671  and  _673
REMARK  261  A    between atoms: _673  and  _674
REMARK  262  A    between atoms: _677  and  _679
REMARK  263  A    between atoms: _679  and  _680
REMARK  264  A    between atoms: _679  and  _682
REMARK  265  A    between atoms: _682  and  _683
REMARK  266  A    between atoms: _686  and  _688
REMARK  267  A    between atoms: _688  and  _689
REMARK  268  A    between atoms: _688  and  _691
REMARK  269  A    between atoms: _694  and  _696
REMARK  270  A    between atoms: _696  and  _697
REMARK  271  A    between atoms: _696  and  _699
REMARK  272  A    between atoms: _699  and  _700
REMARK  273  A    between atoms: _700  and  _701
REMARK  274  A    between atoms: _704  and  _706
REMARK  275  A    between atoms: _706  and  _707
REMARK  276  A    between atoms: _706  and  _709
REMARK  277  A    between atoms: _709  and  _710
REMARK  278  A    between atoms: _715  and  _716
REMARK  279  A    between atoms: _718  and  _720
REMARK  280  A    between atoms: _720  and  _721
REMARK  281  A    between atoms: _720  and  _723
REMARK  282  A    between atoms: _723  and  _724
REMARK  283  A    between atoms: _724  and  _725
REMARK  284  A    between atoms: _725  and  _726
REMARK  285  A    between atoms: _735  and  _737
REMARK  286  A    between atoms: _737  and  _738
REMARK  287  A    between atoms: _737  and  _740
REMARK  288  A    between atoms: _740  and  _741
REMARK  289  A    between atoms: _746  and  _747
REMARK  290  A    between atoms: _749  and  _751
REMARK  291  A    between atoms: _751  and  _752
REMARK  292  A    between atoms: _751  and  _754
REMARK  293  A    between atoms: _754  and  _755
REMARK  294  A    between atoms: _758  and  _760
REMARK  295  A    between atoms: _760  and  _761
REMARK  296  A    between atoms: _760  and  _763
REMARK  297  A    between atoms: _763  and  _764
REMARK  298  A    between atoms: _766  and  _768
REMARK  299  A    between atoms: _768  and  _769
REMARK  300  A    between atoms: _768  and  _771
REMARK  301  A    between atoms: _771  and  _772
REMARK  302  A    between atoms: _778  and  _780
REMARK  303  A    between atoms: _780  and  _781
REMARK  304  A    between atoms: _780  and  _783
REMARK  305  A    between atoms: _783  and  _784
REMARK  306  A    between atoms: _784  and  _785
REMARK                            x       y       z     vdW  Elec       q    Type
REMARK                         _______ _______ _______ _____ _____    ______ ____
ROOT
ATOM      1  CA  MET A   1      41.858  -0.931  10.749  0.00  0.00    +0.134 C 
ENDROOT
BRANCH   1   2
ATOM      2  N   MET A   1      42.561  -2.049  11.414  0.00  0.00    -0.239 NA
ATOM      3  H   MET A   1      42.015  -2.862  11.763  0.00  0.00    +0.142 HD
ENDBRANCH   1   2
BRANCH   1   4
ATOM      4  C   MET A   1      42.092   0.371  11.518  0.00  0.00    +0.224 C 
ATOM      5  O   MET A   1      42.330   1.429  10.931  0.00  0.00    -0.287 OA
ENDBRANCH   1   4
BRANCH   1   6
ATOM      6  CB  MET A   1      40.348  -1.185  10.597  0.00  0.00    +0.037 C 
BRANCH   6   7
ATOM      7  CG  MET A   1      39.952  -2.396   9.764  0.00  0.00    +0.059 C 
BRANCH   7   8
ATOM      8  SD  MET A   1      40.433  -2.203   8.032  0.00  0.00    -0.139 S 
ATOM      9  CE  MET A   1      41.932  -3.187   7.962  0.00  0.00    +0.069 C 
ENDBRANCH   7   8
ENDBRANCH   6   7
ENDBRANCH   1   6
TORSDOF 5
REMARK  Name = ../refined-set-2016/4ca7/4ca7_pocket.pdb
REMARK  306 active torsions:
REMARK  status: ('A' for Active; 'I' for Inactive)
REMARK    1  A    between atoms: _1  and  _3
REMARK    2  A    between atoms: _3  and  _4
REMARK    3  A    between atoms: _3  and  _6
REMARK    4  A    between atoms: _6  and  _7
REMARK    5  A    between atoms: _7  and  _8
REMARK    6  A    between atoms: _8  and  _9
REMARK    7  A    between atoms: _9  and  _10
REMARK    8  A    between atoms: _14  and  _16
REMARK    9  A    between atoms: _16  and  _17
REMARK   10  A    between atoms: _16  and  _19
REMARK   11  A    between atoms: _19  and  _20
REMARK   12  A    between atoms: _20  and  _21
REMARK   13  A    between atoms: _24  and  _26
REMARK   14  A    between atoms: _26  and  _27
REMARK   15  A    between atoms: _26  and  _29
REMARK   16  A    between atoms: _29  and  _30
REMARK   17  A    between atoms: _30  and  _31
REMARK   18  A    between atoms: _34  and  _36
REMARK   19  A    between atoms: _36  and  _37
REMARK   20  A    between atoms: _36  and  _39
REMARK   21  A    between atoms: _39  and  _40
REMARK   22  A    between atoms: _45  and  _47
REMARK   23  A    between atoms: _47  and  _48
REMARK   24  A    between atoms: _47  and  _50
REMARK   25  A    between atoms: _50  and  _51
REMARK   26  A    between atoms: _61  and  _63
REMARK   27  A    between atoms: _63  and  _64
REMARK   28  A    between atoms: _63  and  _66
REMARK   29  A    between atoms: _66  and  _67
REMARK   30  A    between atoms: _67  and  _68
REMARK   31  A    between atoms: _73  and  _75
REMARK   32  A    between atoms: _75  and  _76
REMARK   33  A    between atoms: _75  and  _78
REMARK   34  A    between atoms: _78  and  _79
REMARK   35  A    between atoms: _79  and  _80
REMARK   36  A    between atoms: _85  and  _87
REMARK   37  A    between atoms: _87  and  _88
REMARK   38  A    between atoms: _87  and  _90
REMARK   39  A    between atoms: _90  and  _91
REMARK   40  A    between atoms: _93  and  _95
REMARK   41  A    between atoms: _95  and  _96
REMARK   42  A    between atoms: _95  and  _98
REMARK   43  A    between atoms: _101  and  _103
REMARK   44  A    between atoms: _103  and  _104
REMARK   45  A    between atoms: _103  and  _106
REMARK   46  A    between atoms: _108  and  _110
REMARK   47  A    between atoms: _110  and  _111
REMARK   48  A    between atoms: _110  and  _113
REMARK   49  A    between atoms: _113  and  _114
REMARK   50  A    between atoms: _119  and  _121
REMARK   51  A    between atoms: _121  and  _122
REMARK   52  A    between atoms: _125  and  _127
REMARK   53  A    between atoms: _127  and  _128
REMARK   54  A    between atoms: _127  and  _130
REMARK   55  A    between atoms: _130  and  _131
REMARK   56  A    between atoms: _133  and  _135
REMARK   57  A    between atoms: _135  and  _136
REMARK   58  A    between atoms: _139  and  _141
REMARK   59  A    between atoms: _141  and  _142
REMARK   60  A    between atoms: _141  and  _144
REMARK   61  A    between atoms: _144  and  _145
REMARK   62  A    between atoms: _155  and  _157
REMARK   63  A    between atoms: _157  and  _158
REMARK   64  A    between atoms: _157  and  _160
REMARK   65  A    between atoms: _160  and  _161
REMARK   66  A    between atoms: _164  and  _166
REMARK   67  A    between atoms: _166  and  _167
REMARK   68  A    between atoms: _166  and  _169
REMARK   69  A    between atoms: _169  and  _170
REMARK   70  A    between atoms: _175  and  _176
REMARK   71  A    between atoms: _178  and  _180
REMARK   72  A    between atoms: _180  and  _181
REMARK   73  A    between atoms: _180  and  _183
REMARK   74  A    between atoms: _183  and  _184
REMARK   75  A    between atoms: _184  and  _185
REMARK   76  A    between atoms: _185  and  _186
REMARK   77  A    between atoms: _195  and  _197
REMARK   78  A    between atoms: _197  and  _198
REMARK   79  A    between atoms: _197  and  _200
REMARK   80  A    between atoms: _200  and  _201
REMARK   81  A    between atoms: _204  and  _206
REMARK   82  A    between atoms: _206  and  _207
REMARK   83  A    between atoms: _206  and  _209
REMARK   84  A    between atoms: _209  and  _210
REMARK   85  A    between atoms: _210  and  _211
REMARK   86  A    between atoms: _211  and  _212
REMARK   87  A    between atoms: _212  and  _213
REMARK   88  A    between atoms: _217  and  _219
REMARK   89  A    between atoms: _219  and  _220
REMARK   90  A    between atoms: _219  and  _222
REMARK   91  A    between atoms: _222  and  _223
REMARK   92  A    between atoms: _223  and  _224
REMARK   93  A    between atoms: _229  and  _231
REMARK   94  A    between atoms: _231  and  _232
REMARK   95  A    between atoms: _231  and  _234
REMARK   96  A    between atoms: _234  and  _235
REMARK   97  A    between atoms: _235  and  _236
REMARK   98  A    between atoms: _236  and  _237
REMARK   99  A    between atoms: _246  and  _248
REMARK  100  A    between atoms: _248  and  _249
REMARK  101  A    between atoms: _248  and  _251
REMARK  102  A    between atoms: _251  and  _252
REMARK  103  A    between atoms: _252  and  _253
REMARK  104  A    between atoms: _258  and  _260
REMARK  105  A    between atoms: _260  and  _261
REMARK  106  A    between atoms: _260  and  _263
REMARK  107  A    between atoms: _263  and  _264
REMARK  108  A    between atoms: _267  and  _269
REMARK  109  A    between atoms: _269  and  _270
REMARK  110  A    between atoms: _269  and  _272
REMARK  111  A    between atoms: _272  and  _273
REMARK  112  A    between atoms: _273  and  _274
REMARK  113  A    between atoms: _279  and  _281
REMARK  114  A    between atoms: _281  and  _282
REMARK  115  A    between atoms: _281  and  _284
REMARK  116  A    between atoms: _284  and  _285
REMARK  117  A    between atoms: _288  and  _290
REMARK  118  A    between atoms: _290  and  _291
REMARK  119  A    between atoms: _290  and  _293
REMARK  120  A    between atoms: _293  and  _294
REMARK  121  A    between atoms: _300  and  _302
REMARK  122  A    between atoms: _302  and  _303
REMARK  123  A    between atoms: _302  and  _305
REMARK  124  A    between atoms: _305  and  _306
REMARK  125  A    between atoms: _309  and  _311
REMARK  126  A    between atoms: _311  and  _312
REMARK  127  A    between atoms: _311  and  _314
REMARK  128  A    between atoms: _317  and  _319
REMARK  129  A    between atoms: _319  and  _320
REMARK  130  A    between atoms: _319  and  _322
REMARK  131  A    between atoms: _322  and  _323
REMARK  132  A    between atoms: _328  and  _330
REMARK  133  A    between atoms: _341  and  _344
REMARK  134  A    between atoms: _344  and  _345
REMARK  135  A    between atoms: _345  and  _346
REMARK  136  A    between atoms: _351  and  _354
REMARK  137  A    between atoms: _354  and  _355
REMARK  138  A    between atoms: _365  and  _366
REMARK  139  A    between atoms: _374  and  _376
REMARK  140  A    between atoms: _376  and  _377
REMARK  141  A    between atoms: _376  and  _379
REMARK  142  A    between atoms: _379  and  _380
REMARK  143  A    between atoms: _383  and  _385
REMARK  144  A    between atoms: _385  and  _386
REMARK  145  A    between atoms: _385  and  _388
REMARK  146  A    between atoms: _388  and  _389
REMARK  147  A    between atoms: _394  and  _395
REMARK  148  A    between atoms: _397  and  _399
REMARK  149  A    between atoms: _399  and  _400
REMARK  150  A    between atoms: _399  and  _402
REMARK  151  A    between atoms: _402  and  _403
REMARK  152  A    between atoms: _409  and  _411
REMARK  153  A    between atoms: _411  and  _412
REMARK  154  A    between atoms: _411  and  _414
REMARK  155  A    between atoms: _414  and  _415
REMARK  156  A    between atoms: _420  and  _421
REMARK  157  A    between atoms: _423  and  _425
REMARK  158  A    between atoms: _425  and  _426
REMARK  159  A    between atoms: _425  and  _428
REMARK  160  A    between atoms: _428  and  _429
REMARK  161  A    between atoms: _429  and  _430
REMARK  162  A    between atoms: _430  and  _431
REMARK  163  A    between atoms: _440  and  _442
REMARK  164  A    between atoms: _442  and  _443
REMARK  165  A    between atoms: _442  and  _445
REMARK  166  A    between atoms: _445  and  _446
REMARK  167  A    between atoms: _449  and  _451
REMARK  168  A    between atoms: _451  and  _452
REMARK  169  A    between atoms: _454  and  _456
REMARK  170  A    between atoms: _456  and  _457
REMARK  171  A    between atoms: _456  and  _459
REMARK  172  A    between atoms: _459  and  _460
REMARK  173  A    between atoms: _466  and  _467
REMARK  174  A    between atoms: _472  and  _474
REMARK  175  A    between atoms: _474  and  _475
REMARK  176  A    between atoms: _477  and  _479
REMARK  177  A    between atoms: _479  and  _480
REMARK  178  A    between atoms: _479  and  _482
REMARK  179  A    between atoms: _482  and  _483
REMARK  180  A    between atoms: _489  and  _491
REMARK  181  A    between atoms: _491  and  _492
REMARK  182  A    between atoms: _491  and  _494
REMARK  183  A    between atoms: _494  and  _495
REMARK  184  A    between atoms: _500  and  _502
REMARK  185  A    between atoms: _502  and  _503
REMARK  186  A    between atoms: _502  and  _505
REMARK  187  A    between atoms: _505  and  _506
REMARK  188  A    between atoms: _506  and  _507
REMARK  189  A    between atoms: _507  and  _508
REMARK  190  A    between atoms: _508  and  ZN_790
REMARK  191  A    between atoms: _510  and  _512
REMARK  192  A    between atoms: _512  and  _513
REMARK  193  A    between atoms: _516  and  _518
REMARK  194  A    between atoms: _518  and  _519
REMARK  195  A    between atoms: _521  and  _523
REMARK  196  A    between atoms: _523  and  _524
REMARK  197  A    between atoms: _523  and  _526
REMARK  198  A    between atoms: _526  and  _527
REMARK  199  A    between atoms: _530  and  _532
REMARK  200  A    between atoms: _532  and  _533
REMARK  201  A    between atoms: _532  and  _535
REMARK  202  A    between atoms: _538  and  _540
REMARK  203  A    between atoms: _540  and  _541
REMARK  204  A    between atoms: _540  and  _543
REMARK  205  A    between atoms: _543  and  _544
REMARK  206  A    between atoms: _546  and  _548
REMARK  207  A    between atoms: _548  and  _549
REMARK  208  A    between atoms: _548  and  _551
REMARK  209  A    between atoms: _551  and  _552
REMARK  210  A    between atoms: _555  and  _557
REMARK  211  A    between atoms: _557  and  _558
REMARK  212  A    between atoms: _557  and  _560
REMARK  213  A    between atoms: _560  and  _561
REMARK  214  A    between atoms: _563  and  _565
REMARK  215  A    between atoms: _565  and  _566
REMARK  216  A    between atoms: _565  and  _568
REMARK  217  A    between atoms: _568  and  _569
REMARK  218  A    between atoms: _572  and  _574
REMARK  219  A    between atoms: _574  and  _575
REMARK  220  A    between atoms: _574  and  _577
REMARK  221  A    between atoms: _577  and  _578
REMARK  222  A    between atoms: _578  and  _579
REMARK  223  A    between atoms: _579  and  _580
REMARK  224  A    between atoms: _580  and  _581
REMARK  225  A    between atoms: _585  and  _587
REMARK  226  A    between atoms: _587  and  _588
REMARK  227  A    between atoms: _587  and  _590
REMARK  228  A    between atoms: _590  and  _591
REMARK  229  A    between atoms: _597  and  _599
REMARK  230  A    between atoms: _599  and  _600
REMARK  231  A    between atoms: _599  and  _602
REMARK  232  A    between atoms: _602  and  _603
REMARK  233  A    between atoms: _609  and  _611
REMARK  234  A    between atoms: _611  and  _612
REMARK  235  A    between atoms: _615  and  _617
REMARK  236  A    between atoms: _617  and  _618
REMARK  237  A    between atoms: _617  and  _620
REMARK  238  A    between atoms: _620  and  _621
REMARK  239  A    between atoms: _621  and  _622
REMARK  240  A    between atoms: _624  and  _626
REMARK  241  A    between atoms: _626  and  _627
REMARK  242  A    between atoms: _626  and  _629
REMARK  243  A    between atoms: _629  and  _630
REMARK  244  A    between atoms: _630  and  _631
REMARK  245  A    between atoms: _631  and  _632
REMARK  246  A    between atoms: _632  and  _633
REMARK  247  A    between atoms: _637  and  _639
REMARK  248  A    between atoms: _639  and  _640
REMARK  249  A    between atoms: _639  and  _642
REMARK  250  A    between atoms: _642  and  _643
REMARK  251  A    between atoms: _648  and  _649
REMARK  252  A    between atoms: _651  and  _653
REMARK  253  A    between atoms: _653  and  _654
REMARK  254  A    between atoms: _653  and  _656
REMARK  255  A    between atoms: _656  and  _657
REMARK  256  A    between atoms: _662  and  _664
REMARK  257  A    between atoms: _664  and  _665
REMARK  258  A    between atoms: _664  and  _667
REMARK  259  A    between atoms: _667  and  _668
REMARK  260  A    between atoms: _671  and  _673
REMARK  261  A    between atoms: _673  and  _674
REMARK  262  A    between atoms: _677  and  _679
REMARK  263  A    between atoms: _679  and  _680
REMARK  264  A    between atoms: _679  and  _682
REMARK  265  A    between atoms: _682  and  _683
REMARK  266  A    between atoms: _686  and  _688
REMARK  267  A    between atoms: _688  and  _689
REMARK  268  A    between atoms: _688  and  _691
REMARK  269  A    between atoms: _694  and  _696
REMARK  270  A    between atoms: _696  and  _697
REMARK  271  A    between atoms: _696  and  _699
REMARK  272  A    between atoms: _699  and  _700
REMARK  273  A    between atoms: _700  and  _701
REMARK  274  A    between atoms: _704  and  _706
REMARK  275  A    between atoms: _706  and  _707
REMARK  276  A    between atoms: _706  and  _709
REMARK  277  A    between atoms: _709  and  _710
REMARK  278  A    between atoms: _715  and  _716
REMARK  279  A    between atoms: _718  and  _720
REMARK  280  A    between atoms: _720  and  _721
REMARK  281  A    between atoms: _720  and  _723
REMARK  282  A    between atoms: _723  and  _724
REMARK  283  A    between atoms: _724  and  _725
REMARK  284  A    between atoms: _725  and  _726
REMARK  285  A    between atoms: _735  and  _737
REMARK  286  A    between atoms: _737  and  _738
REMARK  287  A    between atoms: _737  and  _740
REMARK  288  A    between atoms: _740  and  _741
REMARK  289  A    between atoms: _746  and  _747
REMARK  290  A    between atoms: _749  and  _751
REMARK  291  A    between atoms: _751  and  _752
REMARK  292  A    between atoms: _751  and  _754
REMARK  293  A    between atoms: _754  and  _755
REMARK  294  A    between atoms: _758  and  _760
REMARK  295  A    between atoms: _760  and  _761
REMARK  296  A    between atoms: _760  and  _763
REMARK  297  A    between atoms: _763  and  _764
REMARK  298  A    between atoms: _766  and  _768
REMARK  299  A    between atoms: _768  and  _769
REMARK  300  A    between atoms: _768  and  _771
REMARK  301  A    between atoms: _771  and  _772
REMARK  302  A    between atoms: _778  and  _780
REMARK  303  A    between atoms: _780  and  _781
REMARK  304  A    between atoms: _780  and  _783
REMARK  305  A    between atoms: _783  and  _784
REMARK  306  A    between atoms: _784  and  _785
REMARK                            x       y       z     vdW  Elec       q    Type
REMARK                         _______ _______ _______ _____ _____    ______ ____
ROOT
ATOM      1  CA  TYR A   2      33.770   0.933   3.571  0.00  0.00    +0.153 C 
ENDROOT
BRANCH   1   4
ATOM      2  C   LYS A   1      36.130   0.260   3.358  0.00  0.00    +0.238 C 
ATOM      3  O   LYS A   1      36.545   1.408   3.573  0.00  0.00    -0.274 OA
ATOM      4  N   TYR A   2      34.837  -0.073   3.423  0.00  0.00    -0.297 N 
ATOM      5  H   TYR A   2      34.575  -1.078   3.367  0.00  0.00    +0.150 HD
BRANCH   2   6
ATOM      6  CA  LYS A   1      37.121  -0.869   3.019  0.00  0.00    +0.145 C 
BRANCH   6   7
ATOM      7  N   LYS A   1      38.003  -0.426   1.939  0.00  0.00    -0.238 NA
ATOM      8  H   LYS A   1      38.851   0.124   2.184  0.00  0.00    +0.142 HD
ENDBRANCH   6   7
BRANCH   6   9
ATOM      9  CB  LYS A   1      37.957  -1.240   4.256  0.00  0.00    +0.026 C 
BRANCH   9  10
ATOM     10  CG  LYS A   1      37.148  -1.669   5.482  0.00  0.00    -0.000 C 
BRANCH  10  11
ATOM     11  CD  LYS A   1      36.367  -2.960   5.258  0.00  0.00    -0.024 C 
BRANCH  11  12
ATOM     12  CE  LYS A   1      35.390  -3.221   6.408  0.00  0.00    -0.086 C 
BRANCH  12  13
ATOM     13  NZ  LYS A   1      34.260  -4.096   5.983  0.00  0.00    +0.380 N 
ATOM     14  HZ1 LYS A   1      33.620  -4.250   6.788  0.00  0.00    -0.089 HD
ATOM     15  HZ2 LYS A   1      34.634  -5.010   5.657  0.00  0.00    -0.089 HD
ATOM     16  HZ3 LYS A   1      33.740  -3.637   5.208  0.00  0.00    -0.089 HD
ENDBRANCH  12  13
ENDBRANCH  11  12
ENDBRANCH  10  11
ENDBRANCH   9  10
ENDBRANCH   6   9
ENDBRANCH   2   6
ENDBRANCH   1   4
BRANCH   1  17
ATOM     17  C   TYR A   2      34.037   1.947   4.672  0.00  0.00    +0.241 C 
ATOM     18  N   HIS A   3      34.317   1.446   5.870  0.00  0.00    -0.297 N 
ATOM     19  H   HIS A   3      34.411   0.416   5.975  0.00  0.00    +0.150 HD
ATOM     20  O   TYR A   2      33.999   3.151   4.443  0.00  0.00    -0.273 OA
BRANCH  18  21
ATOM     21  CA  HIS A   3      34.496   2.290   7.038  0.00  0.00    +0.155 C 
BRANCH  21  22
ATOM     22  C   HIS A   3      35.654   3.270   6.907  0.00  0.00    +0.241 C 
ATOM     23  O   HIS A   3      35.633   4.358   7.489  0.00  0.00    -0.273 OA
ATOM     24  N   ILE A   4      36.674   2.888   6.150  0.00  0.00    -0.298 N 
ATOM     25  H   ILE A   4      36.682   1.935   5.734  0.00  0.00    +0.150 HD
BRANCH  24  26
ATOM     26  CA  ILE A   4      37.785   3.800   5.899  0.00  0.00    +0.137 C 
BRANCH  26  27
ATOM     27  C   ILE A   4      37.358   4.931   4.951  0.00  0.00    +0.227 C 
ATOM     28  O   ILE A   4      37.585   6.099   5.260  0.00  0.00    -0.286 OA
ENDBRANCH  26  27
BRANCH  26  29
ATOM     29  CB  ILE A   4      39.086   3.048   5.525  0.00  0.00    +0.026 C 
ATOM     30  CG2 ILE A   4      40.213   4.027   5.190  0.00  0.00    +0.002 C 
BRANCH  29  31
ATOM     31  CG1 ILE A   4      39.464   2.126   6.715  0.00  0.00    +0.002 C 
ATOM     32  CD1 ILE A   4      40.862   1.545   6.687  0.00  0.00    +0.000 C 
ENDBRANCH  29  31
ENDBRANCH  26  29
ENDBRANCH  24  26
ENDBRANCH  21  22
BRANCH  21  33
ATOM     33  CB  HIS A   3      34.691   1.405   8.265  0.00  0.00    +0.076 C 
BRANCH  33  34
ATOM     34  CG  HIS A   3      33.541   0.481   8.530  0.00  0.00    +0.082 A 
ATOM     35  CD2 HIS A   3      32.665   0.428   9.563  0.00  0.00    +0.115 A 
ATOM     36  NE2 HIS A   3      31.811  -0.619   9.317  0.00  0.00    -0.221 NA
ATOM     37  CE1 HIS A   3      32.150  -1.189   8.171  0.00  0.00    +0.199 A 
ATOM     38  ND1 HIS A   3      33.196  -0.549   7.680  0.00  0.00    -0.227 NA
ENDBRANCH  33  34
ENDBRANCH  21  33
ENDBRANCH  18  21
ENDBRANCH   1  17
BRANCH   1  39
ATOM     39  CB  TYR A   2      32.378   0.285   3.767  0.00  0.00    +0.055 C 
BRANCH  39  40
ATOM     40  CG  TYR A   2      31.289   1.318   4.083  0.00  0.00    -0.020 A 
ATOM     41  CD2 TYR A   2      30.854   1.515   5.397  0.00  0.00    -0.001 A 
ATOM     42  CE2 TYR A   2      29.879   2.462   5.696  0.00  0.00    +0.036 A 
ATOM     43  CZ  TYR A   2      29.344   3.238   4.680  0.00  0.00    +0.134 A 
ATOM     44  CE1 TYR A   2      29.762   3.071   3.361  0.00  0.00    +0.036 A 
ATOM     45  CD1 TYR A   2      30.737   2.118   3.076  0.00  0.00    -0.001 A 
BRANCH  43  46
ATOM     46  OH  TYR A   2      28.395   4.174   4.988  0.00  0.00    -0.506 OA
ATOM     47  HH  TYR A   2      28.115   4.642   4.162  0.00  0.00    +0.292 HD
ENDBRANCH  43  46
ENDBRANCH  39  40
ENDBRANCH   1  39
TORSDOF 20
REMARK  Name = ../refined-set-2016/4ca7/4ca7_pocket.pdb
REMARK  306 active torsions:
REMARK  status: ('A' for Active; 'I' for Inactive)
REMARK    1  A    between atoms: _1  and  _3
REMARK    2  A    between atoms: _3  and  _4
REMARK    3  A    between atoms: _3  and  _6
REMARK    4  A    between atoms: _6  and  _7
REMARK    5  A    between atoms: _7  and  _8
REMARK    6  A    between atoms: _8  and  _9
REMARK    7  A    between atoms: _9  and  _10
REMARK    8  A    between atoms: _14  and  _16
REMARK    9  A    between atoms: _16  and  _17
REMARK   10  A    between atoms: _16  and  _19
REMARK   11  A    between atoms: _19  and  _20
REMARK   12  A    between atoms: _20  and  _21
REMARK   13  A    between atoms: _24  and  _26
REMARK   14  A    between atoms: _26  and  _27
REMARK   15  A    between atoms: _26  and  _29
REMARK   16  A    between atoms: _29  and  _30
REMARK   17  A    between atoms: _30  and  _31
REMARK   18  A    between atoms: _34  and  _36
REMARK   19  A    between atoms: _36  and  _37
REMARK   20  A    between atoms: _36  and  _39
REMARK   21  A    between atoms: _39  and  _40
REMARK   22  A    between atoms: _45  and  _47
REMARK   23  A    between atoms: _47  and  _48
REMARK   24  A    between atoms: _47  and  _50
REMARK   25  A    between atoms: _50  and  _51
REMARK   26  A    between atoms: _61  and  _63
REMARK   27  A    between atoms: _63  and  _64
REMARK   28  A    between atoms: _63  and  _66
REMARK   29  A    between atoms: _66  and  _67
REMARK   30  A    between atoms: _67  and  _68
REMARK   31  A    between atoms: _73  and  _75
REMARK   32  A    between atoms: _75  and  _76
REMARK   33  A    between atoms: _75  and  _78
REMARK   34  A    between atoms: _78  and  _79
REMARK   35  A    between atoms: _79  and  _80
REMARK   36  A    between atoms: _85  and  _87
REMARK   37  A    between atoms: _87  and  _88
REMARK   38  A    between atoms: _87  and  _90
REMARK   39  A    between atoms: _90  and  _91
REMARK   40  A    between atoms: _93  and  _95
REMARK   41  A    between atoms: _95  and  _96
REMARK   42  A    between atoms: _95  and  _98
REMARK   43  A    between atoms: _101  and  _103
REMARK   44  A    between atoms: _103  and  _104
REMARK   45  A    between atoms: _103  and  _106
REMARK   46  A    between atoms: _108  and  _110
REMARK   47  A    between atoms: _110  and  _111
REMARK   48  A    between atoms: _110  and  _113
REMARK   49  A    between atoms: _113  and  _114
REMARK   50  A    between atoms: _119  and  _121
REMARK   51  A    between atoms: _121  and  _122
REMARK   52  A    between atoms: _125  and  _127
REMARK   53  A    between atoms: _127  and  _128
REMARK   54  A    between atoms: _127  and  _130
REMARK   55  A    between atoms: _130  and  _131
REMARK   56  A    between atoms: _133  and  _135
REMARK   57  A    between atoms: _135  and  _136
REMARK   58  A    between atoms: _139  and  _141
REMARK   59  A    between atoms: _141  and  _142
REMARK   60  A    between atoms: _141  and  _144
REMARK   61  A    between atoms: _144  and  _145
REMARK   62  A    between atoms: _155  and  _157
REMARK   63  A    between atoms: _157  and  _158
REMARK   64  A    between atoms: _157  and  _160
REMARK   65  A    between atoms: _160  and  _161
REMARK   66  A    between atoms: _164  and  _166
REMARK   67  A    between atoms: _166  and  _167
REMARK   68  A    between atoms: _166  and  _169
REMARK   69  A    between atoms: _169  and  _170
REMARK   70  A    between atoms: _175  and  _176
REMARK   71  A    between atoms: _178  and  _180
REMARK   72  A    between atoms: _180  and  _181
REMARK   73  A    between atoms: _180  and  _183
REMARK   74  A    between atoms: _183  and  _184
REMARK   75  A    between atoms: _184  and  _185
REMARK   76  A    between atoms: _185  and  _186
REMARK   77  A    between atoms: _195  and  _197
REMARK   78  A    between atoms: _197  and  _198
REMARK   79  A    between atoms: _197  and  _200
REMARK   80  A    between atoms: _200  and  _201
REMARK   81  A    between atoms: _204  and  _206
REMARK   82  A    between atoms: _206  and  _207
REMARK   83  A    between atoms: _206  and  _209
REMARK   84  A    between atoms: _209  and  _210
REMARK   85  A    between atoms: _210  and  _211
REMARK   86  A    between atoms: _211  and  _212
REMARK   87  A    between atoms: _212  and  _213
REMARK   88  A    between atoms: _217  and  _219
REMARK   89  A    between atoms: _219  and  _220
REMARK   90  A    between atoms: _219  and  _222
REMARK   91  A    between atoms: _222  and  _223
REMARK   92  A    between atoms: _223  and  _224
REMARK   93  A    between atoms: _229  and  _231
REMARK   94  A    between atoms: _231  and  _232
REMARK   95  A    between atoms: _231  and  _234
REMARK   96  A    between atoms: _234  and  _235
REMARK   97  A    between atoms: _235  and  _236
REMARK   98  A    between atoms: _236  and  _237
REMARK   99  A    between atoms: _246  and  _248
REMARK  100  A    between atoms: _248  and  _249
REMARK  101  A    between atoms: _248  and  _251
REMARK  102  A    between atoms: _251  and  _252
REMARK  103  A    between atoms: _252  and  _253
REMARK  104  A    between atoms: _258  and  _260
REMARK  105  A    between atoms: _260  and  _261
REMARK  106  A    between atoms: _260  and  _263
REMARK  107  A    between atoms: _263  and  _264
REMARK  108  A    between atoms: _267  and  _269
REMARK  109  A    between atoms: _269  and  _270
REMARK  110  A    between atoms: _269  and  _272
REMARK  111  A    between atoms: _272  and  _273
REMARK  112  A    between atoms: _273  and  _274
REMARK  113  A    between atoms: _279  and  _281
REMARK  114  A    between atoms: _281  and  _282
REMARK  115  A    between atoms: _281  and  _284
REMARK  116  A    between atoms: _284  and  _285
REMARK  117  A    between atoms: _288  and  _290
REMARK  118  A    between atoms: _290  and  _291
REMARK  119  A    between atoms: _290  and  _293
REMARK  120  A    between atoms: _293  and  _294
REMARK  121  A    between atoms: _300  and  _302
REMARK  122  A    between atoms: _302  and  _303
REMARK  123  A    between atoms: _302  and  _305
REMARK  124  A    between atoms: _305  and  _306
REMARK  125  A    between atoms: _309  and  _311
REMARK  126  A    between atoms: _311  and  _312
REMARK  127  A    between atoms: _311  and  _314
REMARK  128  A    between atoms: _317  and  _319
REMARK  129  A    between atoms: _319  and  _320
REMARK  130  A    between atoms: _319  and  _322
REMARK  131  A    between atoms: _322  and  _323
REMARK  132  A    between atoms: _328  and  _330
REMARK  133  A    between atoms: _341  and  _344
REMARK  134  A    between atoms: _344  and  _345
REMARK  135  A    between atoms: _345  and  _346
REMARK  136  A    between atoms: _351  and  _354
REMARK  137  A    between atoms: _354  and  _355
REMARK  138  A    between atoms: _365  and  _366
REMARK  139  A    between atoms: _374  and  _376
REMARK  140  A    between atoms: _376  and  _377
REMARK  141  A    between atoms: _376  and  _379
REMARK  142  A    between atoms: _379  and  _380
REMARK  143  A    between atoms: _383  and  _385
REMARK  144  A    between atoms: _385  and  _386
REMARK  145  A    between atoms: _385  and  _388
REMARK  146  A    between atoms: _388  and  _389
REMARK  147  A    between atoms: _394  and  _395
REMARK  148  A    between atoms: _397  and  _399
REMARK  149  A    between atoms: _399  and  _400
REMARK  150  A    between atoms: _399  and  _402
REMARK  151  A    between atoms: _402  and  _403
REMARK  152  A    between atoms: _409  and  _411
REMARK  153  A    between atoms: _411  and  _412
REMARK  154  A    between atoms: _411  and  _414
REMARK  155  A    between atoms: _414  and  _415
REMARK  156  A    between atoms: _420  and  _421
REMARK  157  A    between atoms: _423  and  _425
REMARK  158  A    between atoms: _425  and  _426
REMARK  159  A    between atoms: _425  and  _428
REMARK  160  A    between atoms: _428  and  _429
REMARK  161  A    between atoms: _429  and  _430
REMARK  162  A    between atoms: _430  and  _431
REMARK  163  A    between atoms: _440  and  _442
REMARK  164  A    between atoms: _442  and  _443
REMARK  165  A    between atoms: _442  and  _445
REMARK  166  A    between atoms: _445  and  _446
REMARK  167  A    between atoms: _449  and  _451
REMARK  168  A    between atoms: _451  and  _452
REMARK  169  A    between atoms: _454  and  _456
REMARK  170  A    between atoms: _456  and  _457
REMARK  171  A    between atoms: _456  and  _459
REMARK  172  A    between atoms: _459  and  _460
REMARK  173  A    between atoms: _466  and  _467
REMARK  174  A    between atoms: _472  and  _474
REMARK  175  A    between atoms: _474  and  _475
REMARK  176  A    between atoms: _477  and  _479
REMARK  177  A    between atoms: _479  and  _480
REMARK  178  A    between atoms: _479  and  _482
REMARK  179  A    between atoms: _482  and  _483
REMARK  180  A    between atoms: _489  and  _491
REMARK  181  A    between atoms: _491  and  _492
REMARK  182  A    between atoms: _491  and  _494
REMARK  183  A    between atoms: _494  and  _495
REMARK  184  A    between atoms: _500  and  _502
REMARK  185  A    between atoms: _502  and  _503
REMARK  186  A    between atoms: _502  and  _505
REMARK  187  A    between atoms: _505  and  _506
REMARK  188  A    between atoms: _506  and  _507
REMARK  189  A    between atoms: _507  and  _508
REMARK  190  A    between atoms: _508  and  ZN_790
REMARK  191  A    between atoms: _510  and  _512
REMARK  192  A    between atoms: _512  and  _513
REMARK  193  A    between atoms: _516  and  _518
REMARK  194  A    between atoms: _518  and  _519
REMARK  195  A    between atoms: _521  and  _523
REMARK  196  A    between atoms: _523  and  _524
REMARK  197  A    between atoms: _523  and  _526
REMARK  198  A    between atoms: _526  and  _527
REMARK  199  A    between atoms: _530  and  _532
REMARK  200  A    between atoms: _532  and  _533
REMARK  201  A    between atoms: _532  and  _535
REMARK  202  A    between atoms: _538  and  _540
REMARK  203  A    between atoms: _540  and  _541
REMARK  204  A    between atoms: _540  and  _543
REMARK  205  A    between atoms: _543  and  _544
REMARK  206  A    between atoms: _546  and  _548
REMARK  207  A    between atoms: _548  and  _549
REMARK  208  A    between atoms: _548  and  _551
REMARK  209  A    between atoms: _551  and  _552
REMARK  210  A    between atoms: _555  and  _557
REMARK  211  A    between atoms: _557  and  _558
REMARK  212  A    between atoms: _557  and  _560
REMARK  213  A    between atoms: _560  and  _561
REMARK  214  A    between atoms: _563  and  _565
REMARK  215  A    between atoms: _565  and  _566
REMARK  216  A    between atoms: _565  and  _568
REMARK  217  A    between atoms: _568  and  _569
REMARK  218  A    between atoms: _572  and  _574
REMARK  219  A    between atoms: _574  and  _575
REMARK  220  A    between atoms: _574  and  _577
REMARK  221  A    between atoms: _577  and  _578
REMARK  222  A    between atoms: _578  and  _579
REMARK  223  A    between atoms: _579  and  _580
REMARK  224  A    between atoms: _580  and  _581
REMARK  225  A    between atoms: _585  and  _587
REMARK  226  A    between atoms: _587  and  _588
REMARK  227  A    between atoms: _587  and  _590
REMARK  228  A    between atoms: _590  and  _591
REMARK  229  A    between atoms: _597  and  _599
REMARK  230  A    between atoms: _599  and  _600
REMARK  231  A    between atoms: _599  and  _602
REMARK  232  A    between atoms: _602  and  _603
REMARK  233  A    between atoms: _609  and  _611
REMARK  234  A    between atoms: _611  and  _612
REMARK  235  A    between atoms: _615  and  _617
REMARK  236  A    between atoms: _617  and  _618
REMARK  237  A    between atoms: _617  and  _620
REMARK  238  A    between atoms: _620  and  _621
REMARK  239  A    between atoms: _621  and  _622
REMARK  240  A    between atoms: _624  and  _626
REMARK  241  A    between atoms: _626  and  _627
REMARK  242  A    between atoms: _626  and  _629
REMARK  243  A    between atoms: _629  and  _630
REMARK  244  A    between atoms: _630  and  _631
REMARK  245  A    between atoms: _631  and  _632
REMARK  246  A    between atoms: _632  and  _633
REMARK  247  A    between atoms: _637  and  _639
REMARK  248  A    between atoms: _639  and  _640
REMARK  249  A    between atoms: _639  and  _642
REMARK  250  A    between atoms: _642  and  _643
REMARK  251  A    between atoms: _648  and  _649
REMARK  252  A    between atoms: _651  and  _653
REMARK  253  A    between atoms: _653  and  _654
REMARK  254  A    between atoms: _653  and  _656
REMARK  255  A    between atoms: _656  and  _657
REMARK  256  A    between atoms: _662  and  _664
REMARK  257  A    between atoms: _664  and  _665
REMARK  258  A    between atoms: _664  and  _667
REMARK  259  A    between atoms: _667  and  _668
REMARK  260  A    between atoms: _671  and  _673
REMARK  261  A    between atoms: _673  and  _674
REMARK  262  A    between atoms: _677  and  _679
REMARK  263  A    between atoms: _679  and  _680
REMARK  264  A    between atoms: _679  and  _682
REMARK  265  A    between atoms: _682  and  _683
REMARK  266  A    between atoms: _686  and  _688
REMARK  267  A    between atoms: _688  and  _689
REMARK  268  A    between atoms: _688  and  _691
REMARK  269  A    between atoms: _694  and  _696
REMARK  270  A    between atoms: _696  and  _697
REMARK  271  A    between atoms: _696  and  _699
REMARK  272  A    between atoms: _699  and  _700
REMARK  273  A    between atoms: _700  and  _701
REMARK  274  A    between atoms: _704  and  _706
REMARK  275  A    between atoms: _706  and  _707
REMARK  276  A    between atoms: _706  and  _709
REMARK  277  A    between atoms: _709  and  _710
REMARK  278  A    between atoms: _715  and  _716
REMARK  279  A    between atoms: _718  and  _720
REMARK  280  A    between atoms: _720  and  _721
REMARK  281  A    between atoms: _720  and  _723
REMARK  282  A    between atoms: _723  and  _724
REMARK  283  A    between atoms: _724  and  _725
REMARK  284  A    between atoms: _725  and  _726
REMARK  285  A    between atoms: _735  and  _737
REMARK  286  A    between atoms: _737  and  _738
REMARK  287  A    between atoms: _737  and  _740
REMARK  288  A    between atoms: _740  and  _741
REMARK  289  A    between atoms: _746  and  _747
REMARK  290  A    between atoms: _749  and  _751
REMARK  291  A    between atoms: _751  and  _752
REMARK  292  A    between atoms: _751  and  _754
REMARK  293  A    between atoms: _754  and  _755
REMARK  294  A    between atoms: _758  and  _760
REMARK  295  A    between atoms: _760  and  _761
REMARK  296  A    between atoms: _760  and  _763
REMARK  297  A    between atoms: _763  and  _764
REMARK  298  A    between atoms: _766  and  _768
REMARK  299  A    between atoms: _768  and  _769
REMARK  300  A    between atoms: _768  and  _771
REMARK  301  A    between atoms: _771  and  _772
REMARK  302  A    between atoms: _778  and  _780
REMARK  303  A    between atoms: _780  and  _781
REMARK  304  A    between atoms: _780  and  _783
REMARK  305  A    between atoms: _783  and  _784
REMARK  306  A    between atoms: _784  and  _785
REMARK                            x       y       z     vdW  Elec       q    Type
REMARK                         _______ _______ _______ _____ _____    ______ ____
ROOT
ATOM      1  C   VAL A   3      34.768   4.540  11.557  0.00  0.00    +0.241 C 
ATOM      2  N   GLU A   4      34.848   4.914  12.832  0.00  0.00    -0.297 N 
ATOM      3  H   GLU A   4      34.219   5.672  13.166  0.00  0.00    +0.150 HD
ATOM      4  O   VAL A   3      35.488   3.672  11.078  0.00  0.00    -0.273 OA
ENDROOT
BRANCH   2   5
ATOM      5  CA  GLU A   4      35.778   4.311  13.786  0.00  0.00    +0.149 C 
BRANCH   5   6
ATOM      6  C   GLU A   4      35.564   2.780  13.831  0.00  0.00    +0.241 C 
ATOM      7  N   TYR A   5      36.647   1.995  13.878  0.00  0.00    -0.298 N 
ATOM      8  H   TYR A   5      37.586   2.427  13.995  0.00  0.00    +0.150 HD
ATOM      9  O   GLU A   4      34.414   2.327  13.792  0.00  0.00    -0.273 OA
BRANCH   7  10
ATOM     10  CA  TYR A   5      36.533   0.520  13.766  0.00  0.00    +0.141 C 
BRANCH  10  11
ATOM     11  C   TYR A   5      36.761  -0.249  15.072  0.00  0.00    +0.227 C 
ATOM     12  O   TYR A   5      36.318  -1.403  15.206  0.00  0.00    -0.286 OA
ENDBRANCH  10  11
BRANCH  10  13
ATOM     13  CB  TYR A   5      37.422  -0.053  12.628  0.00  0.00    +0.054 C 
BRANCH  13  14
ATOM     14  CG  TYR A   5      36.793  -1.258  11.929  0.00  0.00    -0.020 A 
ATOM     15  CD2 TYR A   5      37.128  -2.566  12.302  0.00  0.00    -0.001 A 
ATOM     16  CE2 TYR A   5      36.535  -3.668  11.692  0.00  0.00    +0.036 A 
ATOM     17  CZ  TYR A   5      35.589  -3.469  10.689  0.00  0.00    +0.134 A 
ATOM     18  CE1 TYR A   5      35.221  -2.171  10.313  0.00  0.00    +0.036 A 
ATOM     19  CD1 TYR A   5      35.822  -1.082  10.933  0.00  0.00    -0.001 A 
BRANCH  17  20
ATOM     20  OH  TYR A   5      34.978  -4.547  10.083  0.00  0.00    -0.506 OA
ATOM     21  HH  TYR A   5      34.340  -4.222   9.400  0.00  0.00    +0.292 HD
ENDBRANCH  17  20
ENDBRANCH  13  14
ENDBRANCH  10  13
ENDBRANCH   7  10
ENDBRANCH   5   6
BRANCH   5  22
ATOM     22  CB  GLU A   4      35.545   4.954  15.162  0.00  0.00    +0.041 C 
BRANCH  22  23
ATOM     23  CG  GLU A   4      36.547   4.554  16.222  0.00  0.00    +0.116 C 
BRANCH  23  24
ATOM     24  CD  GLU A   4      36.021   3.466  17.143  0.00  0.00    +0.365 C 
ATOM     25  OE2 GLU A   4      36.553   3.355  18.261  0.00  0.00    -0.246 OA
ATOM     26  OE1 GLU A   4      35.086   2.721  16.751  0.00  0.00    -0.246 OA
ENDBRANCH  23  24
ENDBRANCH  22  23
ENDBRANCH   5  22
ENDBRANCH   2   5
BRANCH   1  27
ATOM     27  CA  VAL A   3      33.716   5.255  10.697  0.00  0.00    +0.149 C 
BRANCH  27  30
ATOM     28  C   ASP A   2      34.390   7.249   9.435  0.00  0.00    +0.241 C 
ATOM     29  O   ASP A   2      33.799   8.015  10.199  0.00  0.00    -0.273 OA
ATOM     30  N   VAL A   3      34.366   5.925   9.568  0.00  0.00    -0.297 N 
ATOM     31  H   VAL A   3      34.828   5.342   8.841  0.00  0.00    +0.150 HD
BRANCH  28  32
ATOM     32  CA  ASP A   2      35.184   7.793   8.239  0.00  0.00    +0.160 C 
BRANCH  32  35
ATOM     33  C   ALA A   1      33.450   7.214   6.587  0.00  0.00    +0.238 C 
ATOM     34  O   ALA A   1      32.540   7.703   7.259  0.00  0.00    -0.274 OA
ATOM     35  N   ASP A   2      34.722   7.186   6.985  0.00  0.00    -0.297 N 
ATOM     36  H   ASP A   2      35.420   6.711   6.378  0.00  0.00    +0.150 HD
BRANCH  33  37
ATOM     37  CA  ALA A   1      33.149   6.592   5.217  0.00  0.00    +0.145 C 
ATOM     38  CB  ALA A   1      31.968   5.634   5.325  0.00  0.00    +0.028 C 
BRANCH  37  39
ATOM     39  N   ALA A   1      34.302   5.916   4.605  0.00  0.00    -0.238 NA
ATOM     40  H   ALA A   1      34.532   4.946   4.900  0.00  0.00    +0.142 HD
ENDBRANCH  37  39
ENDBRANCH  33  37
ENDBRANCH  32  35
BRANCH  32  41
ATOM     41  CB  ASP A   2      35.136   9.342   8.163  0.00  0.00    +0.143 C 
BRANCH  41  42
ATOM     42  CG  ASP A   2      35.565  10.026   9.479  0.00  0.00    +0.367 C 
ATOM     43  OD2 ASP A   2      36.409   9.460  10.207  0.00  0.00    -0.246 OA
ATOM     44  OD1 ASP A   2      35.057  11.138   9.767  0.00  0.00    -0.246 OA
ENDBRANCH  41  42
ENDBRANCH  32  41
ENDBRANCH  28  32
ENDBRANCH  27  30
BRANCH  27  45
ATOM     45  CB  VAL A   3      32.620   4.264  10.224  0.00  0.00    +0.027 C 
ATOM     46  CG2 VAL A   3      31.964   3.556  11.397  0.00  0.00    +0.002 C 
ATOM     47  CG1 VAL A   3      31.555   4.984   9.398  0.00  0.00    +0.002 C 
ENDBRANCH  27  45
ENDBRANCH   1  27
TORSDOF 19
REMARK  Name = ../refined-set-2016/4ca7/4ca7_pocket.pdb
REMARK  306 active torsions:
REMARK  status: ('A' for Active; 'I' for Inactive)
REMARK    1  A    between atoms: _1  and  _3
REMARK    2  A    between atoms: _3  and  _4
REMARK    3  A    between atoms: _3  and  _6
REMARK    4  A    between atoms: _6  and  _7
REMARK    5  A    between atoms: _7  and  _8
REMARK    6  A    between atoms: _8  and  _9
REMARK    7  A    between atoms: _9  and  _10
REMARK    8  A    between atoms: _14  and  _16
REMARK    9  A    between atoms: _16  and  _17
REMARK   10  A    between atoms: _16  and  _19
REMARK   11  A    between atoms: _19  and  _20
REMARK   12  A    between atoms: _20  and  _21
REMARK   13  A    between atoms: _24  and  _26
REMARK   14  A    between atoms: _26  and  _27
REMARK   15  A    between atoms: _26  and  _29
REMARK   16  A    between atoms: _29  and  _30
REMARK   17  A    between atoms: _30  and  _31
REMARK   18  A    between atoms: _34  and  _36
REMARK   19  A    between atoms: _36  and  _37
REMARK   20  A    between atoms: _36  and  _39
REMARK   21  A    between atoms: _39  and  _40
REMARK   22  A    between atoms: _45  and  _47
REMARK   23  A    between atoms: _47  and  _48
REMARK   24  A    between atoms: _47  and  _50
REMARK   25  A    between atoms: _50  and  _51
REMARK   26  A    between atoms: _61  and  _63
REMARK   27  A    between atoms: _63  and  _64
REMARK   28  A    between atoms: _63  and  _66
REMARK   29  A    between atoms: _66  and  _67
REMARK   30  A    between atoms: _67  and  _68
REMARK   31  A    between atoms: _73  and  _75
REMARK   32  A    between atoms: _75  and  _76
REMARK   33  A    between atoms: _75  and  _78
REMARK   34  A    between atoms: _78  and  _79
REMARK   35  A    between atoms: _79  and  _80
REMARK   36  A    between atoms: _85  and  _87
REMARK   37  A    between atoms: _87  and  _88
REMARK   38  A    between atoms: _87  and  _90
REMARK   39  A    between atoms: _90  and  _91
REMARK   40  A    between atoms: _93  and  _95
REMARK   41  A    between atoms: _95  and  _96
REMARK   42  A    between atoms: _95  and  _98
REMARK   43  A    between atoms: _101  and  _103
REMARK   44  A    between atoms: _103  and  _104
REMARK   45  A    between atoms: _103  and  _106
REMARK   46  A    between atoms: _108  and  _110
REMARK   47  A    between atoms: _110  and  _111
REMARK   48  A    between atoms: _110  and  _113
REMARK   49  A    between atoms: _113  and  _114
REMARK   50  A    between atoms: _119  and  _121
REMARK   51  A    between atoms: _121  and  _122
REMARK   52  A    between atoms: _125  and  _127
REMARK   53  A    between atoms: _127  and  _128
REMARK   54  A    between atoms: _127  and  _130
REMARK   55  A    between atoms: _130  and  _131
REMARK   56  A    between atoms: _133  and  _135
REMARK   57  A    between atoms: _135  and  _136
REMARK   58  A    between atoms: _139  and  _141
REMARK   59  A    between atoms: _141  and  _142
REMARK   60  A    between atoms: _141  and  _144
REMARK   61  A    between atoms: _144  and  _145
REMARK   62  A    between atoms: _155  and  _157
REMARK   63  A    between atoms: _157  and  _158
REMARK   64  A    between atoms: _157  and  _160
REMARK   65  A    between atoms: _160  and  _161
REMARK   66  A    between atoms: _164  and  _166
REMARK   67  A    between atoms: _166  and  _167
REMARK   68  A    between atoms: _166  and  _169
REMARK   69  A    between atoms: _169  and  _170
REMARK   70  A    between atoms: _175  and  _176
REMARK   71  A    between atoms: _178  and  _180
REMARK   72  A    between atoms: _180  and  _181
REMARK   73  A    between atoms: _180  and  _183
REMARK   74  A    between atoms: _183  and  _184
REMARK   75  A    between atoms: _184  and  _185
REMARK   76  A    between atoms: _185  and  _186
REMARK   77  A    between atoms: _195  and  _197
REMARK   78  A    between atoms: _197  and  _198
REMARK   79  A    between atoms: _197  and  _200
REMARK   80  A    between atoms: _200  and  _201
REMARK   81  A    between atoms: _204  and  _206
REMARK   82  A    between atoms: _206  and  _207
REMARK   83  A    between atoms: _206  and  _209
REMARK   84  A    between atoms: _209  and  _210
REMARK   85  A    between atoms: _210  and  _211
REMARK   86  A    between atoms: _211  and  _212
REMARK   87  A    between atoms: _212  and  _213
REMARK   88  A    between atoms: _217  and  _219
REMARK   89  A    between atoms: _219  and  _220
REMARK   90  A    between atoms: _219  and  _222
REMARK   91  A    between atoms: _222  and  _223
REMARK   92  A    between atoms: _223  and  _224
REMARK   93  A    between atoms: _229  and  _231
REMARK   94  A    between atoms: _231  and  _232
REMARK   95  A    between atoms: _231  and  _234
REMARK   96  A    between atoms: _234  and  _235
REMARK   97  A    between atoms: _235  and  _236
REMARK   98  A    between atoms: _236  and  _237
REMARK   99  A    between atoms: _246  and  _248
REMARK  100  A    between atoms: _248  and  _249
REMARK  101  A    between atoms: _248  and  _251
REMARK  102  A    between atoms: _251  and  _252
REMARK  103  A    between atoms: _252  and  _253
REMARK  104  A    between atoms: _258  and  _260
REMARK  105  A    between atoms: _260  and  _261
REMARK  106  A    between atoms: _260  and  _263
REMARK  107  A    between atoms: _263  and  _264
REMARK  108  A    between atoms: _267  and  _269
REMARK  109  A    between atoms: _269  and  _270
REMARK  110  A    between atoms: _269  and  _272
REMARK  111  A    between atoms: _272  and  _273
REMARK  112  A    between atoms: _273  and  _274
REMARK  113  A    between atoms: _279  and  _281
REMARK  114  A    between atoms: _281  and  _282
REMARK  115  A    between atoms: _281  and  _284
REMARK  116  A    between atoms: _284  and  _285
REMARK  117  A    between atoms: _288  and  _290
REMARK  118  A    between atoms: _290  and  _291
REMARK  119  A    between atoms: _290  and  _293
REMARK  120  A    between atoms: _293  and  _294
REMARK  121  A    between atoms: _300  and  _302
REMARK  122  A    between atoms: _302  and  _303
REMARK  123  A    between atoms: _302  and  _305
REMARK  124  A    between atoms: _305  and  _306
REMARK  125  A    between atoms: _309  and  _311
REMARK  126  A    between atoms: _311  and  _312
REMARK  127  A    between atoms: _311  and  _314
REMARK  128  A    between atoms: _317  and  _319
REMARK  129  A    between atoms: _319  and  _320
REMARK  130  A    between atoms: _319  and  _322
REMARK  131  A    between atoms: _322  and  _323
REMARK  132  A    between atoms: _328  and  _330
REMARK  133  A    between atoms: _341  and  _344
REMARK  134  A    between atoms: _344  and  _345
REMARK  135  A    between atoms: _345  and  _346
REMARK  136  A    between atoms: _351  and  _354
REMARK  137  A    between atoms: _354  and  _355
REMARK  138  A    between atoms: _365  and  _366
REMARK  139  A    between atoms: _374  and  _376
REMARK  140  A    between atoms: _376  and  _377
REMARK  141  A    between atoms: _376  and  _379
REMARK  142  A    between atoms: _379  and  _380
REMARK  143  A    between atoms: _383  and  _385
REMARK  144  A    between atoms: _385  and  _386
REMARK  145  A    between atoms: _385  and  _388
REMARK  146  A    between atoms: _388  and  _389
REMARK  147  A    between atoms: _394  and  _395
REMARK  148  A    between atoms: _397  and  _399
REMARK  149  A    between atoms: _399  and  _400
REMARK  150  A    between atoms: _399  and  _402
REMARK  151  A    between atoms: _402  and  _403
REMARK  152  A    between atoms: _409  and  _411
REMARK  153  A    between atoms: _411  and  _412
REMARK  154  A    between atoms: _411  and  _414
REMARK  155  A    between atoms: _414  and  _415
REMARK  156  A    between atoms: _420  and  _421
REMARK  157  A    between atoms: _423  and  _425
REMARK  158  A    between atoms: _425  and  _426
REMARK  159  A    between atoms: _425  and  _428
REMARK  160  A    between atoms: _428  and  _429
REMARK  161  A    between atoms: _429  and  _430
REMARK  162  A    between atoms: _430  and  _431
REMARK  163  A    between atoms: _440  and  _442
REMARK  164  A    between atoms: _442  and  _443
REMARK  165  A    between atoms: _442  and  _445
REMARK  166  A    between atoms: _445  and  _446
REMARK  167  A    between atoms: _449  and  _451
REMARK  168  A    between atoms: _451  and  _452
REMARK  169  A    between atoms: _454  and  _456
REMARK  170  A    between atoms: _456  and  _457
REMARK  171  A    between atoms: _456  and  _459
REMARK  172  A    between atoms: _459  and  _460
REMARK  173  A    between atoms: _466  and  _467
REMARK  174  A    between atoms: _472  and  _474
REMARK  175  A    between atoms: _474  and  _475
REMARK  176  A    between atoms: _477  and  _479
REMARK  177  A    between atoms: _479  and  _480
REMARK  178  A    between atoms: _479  and  _482
REMARK  179  A    between atoms: _482  and  _483
REMARK  180  A    between atoms: _489  and  _491
REMARK  181  A    between atoms: _491  and  _492
REMARK  182  A    between atoms: _491  and  _494
REMARK  183  A    between atoms: _494  and  _495
REMARK  184  A    between atoms: _500  and  _502
REMARK  185  A    between atoms: _502  and  _503
REMARK  186  A    between atoms: _502  and  _505
REMARK  187  A    between atoms: _505  and  _506
REMARK  188  A    between atoms: _506  and  _507
REMARK  189  A    between atoms: _507  and  _508
REMARK  190  A    between atoms: _508  and  ZN_790
REMARK  191  A    between atoms: _510  and  _512
REMARK  192  A    between atoms: _512  and  _513
REMARK  193  A    between atoms: _516  and  _518
REMARK  194  A    between atoms: _518  and  _519
REMARK  195  A    between atoms: _521  and  _523
REMARK  196  A    between atoms: _523  and  _524
REMARK  197  A    between atoms: _523  and  _526
REMARK  198  A    between atoms: _526  and  _527
REMARK  199  A    between atoms: _530  and  _532
REMARK  200  A    between atoms: _532  and  _533
REMARK  201  A    between atoms: _532  and  _535
REMARK  202  A    between atoms: _538  and  _540
REMARK  203  A    between atoms: _540  and  _541
REMARK  204  A    between atoms: _540  and  _543
REMARK  205  A    between atoms: _543  and  _544
REMARK  206  A    between atoms: _546  and  _548
REMARK  207  A    between atoms: _548  and  _549
REMARK  208  A    between atoms: _548  and  _551
REMARK  209  A    between atoms: _551  and  _552
REMARK  210  A    between atoms: _555  and  _557
REMARK  211  A    between atoms: _557  and  _558
REMARK  212  A    between atoms: _557  and  _560
REMARK  213  A    between atoms: _560  and  _561
REMARK  214  A    between atoms: _563  and  _565
REMARK  215  A    between atoms: _565  and  _566
REMARK  216  A    between atoms: _565  and  _568
REMARK  217  A    between atoms: _568  and  _569
REMARK  218  A    between atoms: _572  and  _574
REMARK  219  A    between atoms: _574  and  _575
REMARK  220  A    between atoms: _574  and  _577
REMARK  221  A    between atoms: _577  and  _578
REMARK  222  A    between atoms: _578  and  _579
REMARK  223  A    between atoms: _579  and  _580
REMARK  224  A    between atoms: _580  and  _581
REMARK  225  A    between atoms: _585  and  _587
REMARK  226  A    between atoms: _587  and  _588
REMARK  227  A    between atoms: _587  and  _590
REMARK  228  A    between atoms: _590  and  _591
REMARK  229  A    between atoms: _597  and  _599
REMARK  230  A    between atoms: _599  and  _600
REMARK  231  A    between atoms: _599  and  _602
REMARK  232  A    between atoms: _602  and  _603
REMARK  233  A    between atoms: _609  and  _611
REMARK  234  A    between atoms: _611  and  _612
REMARK  235  A    between atoms: _615  and  _617
REMARK  236  A    between atoms: _617  and  _618
REMARK  237  A    between atoms: _617  and  _620
REMARK  238  A    between atoms: _620  and  _621
REMARK  239  A    between atoms: _621  and  _622
REMARK  240  A    between atoms: _624  and  _626
REMARK  241  A    between atoms: _626  and  _627
REMARK  242  A    between atoms: _626  and  _629
REMARK  243  A    between atoms: _629  and  _630
REMARK  244  A    between atoms: _630  and  _631
REMARK  245  A    between atoms: _631  and  _632
REMARK  246  A    between atoms: _632  and  _633
REMARK  247  A    between atoms: _637  and  _639
REMARK  248  A    between atoms: _639  and  _640
REMARK  249  A    between atoms: _639  and  _642
REMARK  250  A    between atoms: _642  and  _643
REMARK  251  A    between atoms: _648  and  _649
REMARK  252  A    between atoms: _651  and  _653
REMARK  253  A    between atoms: _653  and  _654
REMARK  254  A    between atoms: _653  and  _656
REMARK  255  A    between atoms: _656  and  _657
REMARK  256  A    between atoms: _662  and  _664
REMARK  257  A    between atoms: _664  and  _665
REMARK  258  A    between atoms: _664  and  _667
REMARK  259  A    between atoms: _667  and  _668
REMARK  260  A    between atoms: _671  and  _673
REMARK  261  A    between atoms: _673  and  _674
REMARK  262  A    between atoms: _677  and  _679
REMARK  263  A    between atoms: _679  and  _680
REMARK  264  A    between atoms: _679  and  _682
REMARK  265  A    between atoms: _682  and  _683
REMARK  266  A    between atoms: _686  and  _688
REMARK  267  A    between atoms: _688  and  _689
REMARK  268  A    between atoms: _688  and  _691
REMARK  269  A    between atoms: _694  and  _696
REMARK  270  A    between atoms: _696  and  _697
REMARK  271  A    between atoms: _696  and  _699
REMARK  272  A    between atoms: _699  and  _700
REMARK  273  A    between atoms: _700  and  _701
REMARK  274  A    between atoms: _704  and  _706
REMARK  275  A    between atoms: _706  and  _707
REMARK  276  A    between atoms: _706  and  _709
REMARK  277  A    between atoms: _709  and  _710
REMARK  278  A    between atoms: _715  and  _716
REMARK  279  A    between atoms: _718  and  _720
REMARK  280  A    between atoms: _720  and  _721
REMARK  281  A    between atoms: _720  and  _723
REMARK  282  A    between atoms: _723  and  _724
REMARK  283  A    between atoms: _724  and  _725
REMARK  284  A    between atoms: _725  and  _726
REMARK  285  A    between atoms: _735  and  _737
REMARK  286  A    between atoms: _737  and  _738
REMARK  287  A    between atoms: _737  and  _740
REMARK  288  A    between atoms: _740  and  _741
REMARK  289  A    between atoms: _746  and  _747
REMARK  290  A    between atoms: _749  and  _751
REMARK  291  A    between atoms: _751  and  _752
REMARK  292  A    between atoms: _751  and  _754
REMARK  293  A    between atoms: _754  and  _755
REMARK  294  A    between atoms: _758  and  _760
REMARK  295  A    between atoms: _760  and  _761
REMARK  296  A    between atoms: _760  and  _763
REMARK  297  A    between atoms: _763  and  _764
REMARK  298  A    between atoms: _766  and  _768
REMARK  299  A    between atoms: _768  and  _769
REMARK  300  A    between atoms: _768  and  _771
REMARK  301  A    between atoms: _771  and  _772
REMARK  302  A    between atoms: _778  and  _780
REMARK  303  A    between atoms: _780  and  _781
REMARK  304  A    between atoms: _780  and  _783
REMARK  305  A    between atoms: _783  and  _784
REMARK  306  A    between atoms: _784  and  _785
REMARK                            x       y       z     vdW  Elec       q    Type
REMARK                         _______ _______ _______ _____ _____    ______ ____
ROOT
ATOM      1  CA  TYR A   2      33.985  -3.941  16.453  0.00  0.00    +0.153 C 
ENDROOT
BRANCH   1   4
ATOM      2  C   ARG A   1      33.783  -2.059  17.981  0.00  0.00    +0.238 C 
ATOM      3  O   ARG A   1      33.191  -2.750  18.797  0.00  0.00    -0.274 OA
ATOM      4  N   TYR A   2      34.240  -2.549  16.826  0.00  0.00    -0.297 N 
ATOM      5  H   TYR A   2      34.783  -1.935  16.185  0.00  0.00    +0.150 HD
BRANCH   2   6
ATOM      6  CA  ARG A   1      34.012  -0.564  18.259  0.00  0.00    +0.145 C 
BRANCH   6   7
ATOM      7  N   ARG A   1      35.326  -0.100  17.820  0.00  0.00    -0.238 NA
ATOM      8  H   ARG A   1      35.390   0.814  17.329  0.00  0.00    +0.142 HD
ENDBRANCH   6   7
BRANCH   6   9
ATOM      9  CB  ARG A   1      32.901   0.275  17.610  0.00  0.00    +0.030 C 
BRANCH   9  10
ATOM     10  CG  ARG A   1      32.887   0.239  16.077  0.00  0.00    +0.045 C 
BRANCH  10  11
ATOM     11  CD  ARG A   1      31.849   1.201  15.501  0.00  0.00    +0.174 C 
BRANCH  11  12
ATOM     12  NE  ARG A   1      32.162   2.610  15.783  0.00  0.00    -0.265 N 
ATOM     13  HE  ARG A   1      33.036   2.814  16.308  0.00  0.00    +0.259 HD
ATOM     14  CZ  ARG A   1      31.407   3.646  15.415  0.00  0.00    +0.342 C 
ATOM     15  NH2 ARG A   1      31.773   4.888  15.737  0.00  0.00    -0.292 N 
ATOM     16 HH21 ARG A   1      32.648   5.049  16.276  0.00  0.00    +0.255 HD
ATOM     17 HH22 ARG A   1      31.183   5.695  15.449  0.00  0.00    +0.255 HD
ATOM     18  NH1 ARG A   1      30.280   3.451  14.726  0.00  0.00    -0.292 N 
ATOM     19 HH11 ARG A   1      29.986   2.486  14.473  0.00  0.00    +0.255 HD
ATOM     20 HH12 ARG A   1      29.697   4.264  14.443  0.00  0.00    +0.255 HD
ENDBRANCH  11  12
ENDBRANCH  10  11
ENDBRANCH   9  10
ENDBRANCH   6   9
ENDBRANCH   2   6
ENDBRANCH   1   4
BRANCH   1  21
ATOM     21  C   TYR A   2      34.894  -4.905  17.215  0.00  0.00    +0.241 C 
ATOM     22  O   TYR A   2      34.474  -6.009  17.576  0.00  0.00    -0.273 OA
ATOM     23  N   LEU A   3      36.133  -4.488  17.471  0.00  0.00    -0.298 N 
ATOM     24  H   LEU A   3      36.461  -3.579  17.086  0.00  0.00    +0.150 HD
BRANCH  23  25
ATOM     25  CA  LEU A   3      37.034  -5.295  18.287  0.00  0.00    +0.137 C 
BRANCH  25  26
ATOM     26  C   LEU A   3      36.486  -5.413  19.720  0.00  0.00    +0.227 C 
ATOM     27  O   LEU A   3      36.390  -6.530  20.262  0.00  0.00    -0.286 OA
ENDBRANCH  25  26
BRANCH  25  28
ATOM     28  CB  LEU A   3      38.474  -4.745  18.266  0.00  0.00    +0.028 C 
BRANCH  28  29
ATOM     29  CG  LEU A   3      39.494  -5.408  19.224  0.00  0.00    +0.002 C 
ATOM     30  CD2 LEU A   3      40.862  -4.725  19.179  0.00  0.00    +0.000 C 
ATOM     31  CD1 LEU A   3      39.649  -6.913  18.976  0.00  0.00    +0.000 C 
ENDBRANCH  28  29
ENDBRANCH  25  28
ENDBRANCH  23  25
ENDBRANCH   1  21
BRANCH   1  32
ATOM     32  CB  TYR A   2      34.094  -4.140  14.931  0.00  0.00    +0.055 C 
BRANCH  32  33
ATOM     33  CG  TYR A   2      33.094  -3.324  14.149  0.00  0.00    -0.020 A 
ATOM     34  CD2 TYR A   2      31.727  -3.643  14.165  0.00  0.00    -0.001 A 
ATOM     35  CE2 TYR A   2      30.807  -2.900  13.432  0.00  0.00    +0.036 A 
ATOM     36  CZ  TYR A   2      31.244  -1.819  12.688  0.00  0.00    +0.134 A 
ATOM     37  CE1 TYR A   2      32.587  -1.485  12.648  0.00  0.00    +0.036 A 
ATOM     38  CD1 TYR A   2      33.505  -2.234  13.375  0.00  0.00    -0.001 A 
BRANCH  36  39
ATOM     39  OH  TYR A   2      30.326  -1.083  11.965  0.00  0.00    -0.506 OA
ATOM     40  HH  TYR A   2      29.420  -1.456  12.107  0.00  0.00    +0.292 HD
ENDBRANCH  36  39
ENDBRANCH  32  33
ENDBRANCH   1  32
TORSDOF 15
REMARK  Name = ../refined-set-2016/4ca7/4ca7_pocket.pdb
REMARK  306 active torsions:
REMARK  status: ('A' for Active; 'I' for Inactive)
REMARK    1  A    between atoms: _1  and  _3
REMARK    2  A    between atoms: _3  and  _4
REMARK    3  A    between atoms: _3  and  _6
REMARK    4  A    between atoms: _6  and  _7
REMARK    5  A    between atoms: _7  and  _8
REMARK    6  A    between atoms: _8  and  _9
REMARK    7  A    between atoms: _9  and  _10
REMARK    8  A    between atoms: _14  and  _16
REMARK    9  A    between atoms: _16  and  _17
REMARK   10  A    between atoms: _16  and  _19
REMARK   11  A    between atoms: _19  and  _20
REMARK   12  A    between atoms: _20  and  _21
REMARK   13  A    between atoms: _24  and  _26
REMARK   14  A    between atoms: _26  and  _27
REMARK   15  A    between atoms: _26  and  _29
REMARK   16  A    between atoms: _29  and  _30
REMARK   17  A    between atoms: _30  and  _31
REMARK   18  A    between atoms: _34  and  _36
REMARK   19  A    between atoms: _36  and  _37
REMARK   20  A    between atoms: _36  and  _39
REMARK   21  A    between atoms: _39  and  _40
REMARK   22  A    between atoms: _45  and  _47
REMARK   23  A    between atoms: _47  and  _48
REMARK   24  A    between atoms: _47  and  _50
REMARK   25  A    between atoms: _50  and  _51
REMARK   26  A    between atoms: _61  and  _63
REMARK   27  A    between atoms: _63  and  _64
REMARK   28  A    between atoms: _63  and  _66
REMARK   29  A    between atoms: _66  and  _67
REMARK   30  A    between atoms: _67  and  _68
REMARK   31  A    between atoms: _73  and  _75
REMARK   32  A    between atoms: _75  and  _76
REMARK   33  A    between atoms: _75  and  _78
REMARK   34  A    between atoms: _78  and  _79
REMARK   35  A    between atoms: _79  and  _80
REMARK   36  A    between atoms: _85  and  _87
REMARK   37  A    between atoms: _87  and  _88
REMARK   38  A    between atoms: _87  and  _90
REMARK   39  A    between atoms: _90  and  _91
REMARK   40  A    between atoms: _93  and  _95
REMARK   41  A    between atoms: _95  and  _96
REMARK   42  A    between atoms: _95  and  _98
REMARK   43  A    between atoms: _101  and  _103
REMARK   44  A    between atoms: _103  and  _104
REMARK   45  A    between atoms: _103  and  _106
REMARK   46  A    between atoms: _108  and  _110
REMARK   47  A    between atoms: _110  and  _111
REMARK   48  A    between atoms: _110  and  _113
REMARK   49  A    between atoms: _113  and  _114
REMARK   50  A    between atoms: _119  and  _121
REMARK   51  A    between atoms: _121  and  _122
REMARK   52  A    between atoms: _125  and  _127
REMARK   53  A    between atoms: _127  and  _128
REMARK   54  A    between atoms: _127  and  _130
REMARK   55  A    between atoms: _130  and  _131
REMARK   56  A    between atoms: _133  and  _135
REMARK   57  A    between atoms: _135  and  _136
REMARK   58  A    between atoms: _139  and  _141
REMARK   59  A    between atoms: _141  and  _142
REMARK   60  A    between atoms: _141  and  _144
REMARK   61  A    between atoms: _144  and  _145
REMARK   62  A    between atoms: _155  and  _157
REMARK   63  A    between atoms: _157  and  _158
REMARK   64  A    between atoms: _157  and  _160
REMARK   65  A    between atoms: _160  and  _161
REMARK   66  A    between atoms: _164  and  _166
REMARK   67  A    between atoms: _166  and  _167
REMARK   68  A    between atoms: _166  and  _169
REMARK   69  A    between atoms: _169  and  _170
REMARK   70  A    between atoms: _175  and  _176
REMARK   71  A    between atoms: _178  and  _180
REMARK   72  A    between atoms: _180  and  _181
REMARK   73  A    between atoms: _180  and  _183
REMARK   74  A    between atoms: _183  and  _184
REMARK   75  A    between atoms: _184  and  _185
REMARK   76  A    between atoms: _185  and  _186
REMARK   77  A    between atoms: _195  and  _197
REMARK   78  A    between atoms: _197  and  _198
REMARK   79  A    between atoms: _197  and  _200
REMARK   80  A    between atoms: _200  and  _201
REMARK   81  A    between atoms: _204  and  _206
REMARK   82  A    between atoms: _206  and  _207
REMARK   83  A    between atoms: _206  and  _209
REMARK   84  A    between atoms: _209  and  _210
REMARK   85  A    between atoms: _210  and  _211
REMARK   86  A    between atoms: _211  and  _212
REMARK   87  A    between atoms: _212  and  _213
REMARK   88  A    between atoms: _217  and  _219
REMARK   89  A    between atoms: _219  and  _220
REMARK   90  A    between atoms: _219  and  _222
REMARK   91  A    between atoms: _222  and  _223
REMARK   92  A    between atoms: _223  and  _224
REMARK   93  A    between atoms: _229  and  _231
REMARK   94  A    between atoms: _231  and  _232
REMARK   95  A    between atoms: _231  and  _234
REMARK   96  A    between atoms: _234  and  _235
REMARK   97  A    between atoms: _235  and  _236
REMARK   98  A    between atoms: _236  and  _237
REMARK   99  A    between atoms: _246  and  _248
REMARK  100  A    between atoms: _248  and  _249
REMARK  101  A    between atoms: _248  and  _251
REMARK  102  A    between atoms: _251  and  _252
REMARK  103  A    between atoms: _252  and  _253
REMARK  104  A    between atoms: _258  and  _260
REMARK  105  A    between atoms: _260  and  _261
REMARK  106  A    between atoms: _260  and  _263
REMARK  107  A    between atoms: _263  and  _264
REMARK  108  A    between atoms: _267  and  _269
REMARK  109  A    between atoms: _269  and  _270
REMARK  110  A    between atoms: _269  and  _272
REMARK  111  A    between atoms: _272  and  _273
REMARK  112  A    between atoms: _273  and  _274
REMARK  113  A    between atoms: _279  and  _281
REMARK  114  A    between atoms: _281  and  _282
REMARK  115  A    between atoms: _281  and  _284
REMARK  116  A    between atoms: _284  and  _285
REMARK  117  A    between atoms: _288  and  _290
REMARK  118  A    between atoms: _290  and  _291
REMARK  119  A    between atoms: _290  and  _293
REMARK  120  A    between atoms: _293  and  _294
REMARK  121  A    between atoms: _300  and  _302
REMARK  122  A    between atoms: _302  and  _303
REMARK  123  A    between atoms: _302  and  _305
REMARK  124  A    between atoms: _305  and  _306
REMARK  125  A    between atoms: _309  and  _311
REMARK  126  A    between atoms: _311  and  _312
REMARK  127  A    between atoms: _311  and  _314
REMARK  128  A    between atoms: _317  and  _319
REMARK  129  A    between atoms: _319  and  _320
REMARK  130  A    between atoms: _319  and  _322
REMARK  131  A    between atoms: _322  and  _323
REMARK  132  A    between atoms: _328  and  _330
REMARK  133  A    between atoms: _341  and  _344
REMARK  134  A    between atoms: _344  and  _345
REMARK  135  A    between atoms: _345  and  _346
REMARK  136  A    between atoms: _351  and  _354
REMARK  137  A    between atoms: _354  and  _355
REMARK  138  A    between atoms: _365  and  _366
REMARK  139  A    between atoms: _374  and  _376
REMARK  140  A    between atoms: _376  and  _377
REMARK  141  A    between atoms: _376  and  _379
REMARK  142  A    between atoms: _379  and  _380
REMARK  143  A    between atoms: _383  and  _385
REMARK  144  A    between atoms: _385  and  _386
REMARK  145  A    between atoms: _385  and  _388
REMARK  146  A    between atoms: _388  and  _389
REMARK  147  A    between atoms: _394  and  _395
REMARK  148  A    between atoms: _397  and  _399
REMARK  149  A    between atoms: _399  and  _400
REMARK  150  A    between atoms: _399  and  _402
REMARK  151  A    between atoms: _402  and  _403
REMARK  152  A    between atoms: _409  and  _411
REMARK  153  A    between atoms: _411  and  _412
REMARK  154  A    between atoms: _411  and  _414
REMARK  155  A    between atoms: _414  and  _415
REMARK  156  A    between atoms: _420  and  _421
REMARK  157  A    between atoms: _423  and  _425
REMARK  158  A    between atoms: _425  and  _426
REMARK  159  A    between atoms: _425  and  _428
REMARK  160  A    between atoms: _428  and  _429
REMARK  161  A    between atoms: _429  and  _430
REMARK  162  A    between atoms: _430  and  _431
REMARK  163  A    between atoms: _440  and  _442
REMARK  164  A    between atoms: _442  and  _443
REMARK  165  A    between atoms: _442  and  _445
REMARK  166  A    between atoms: _445  and  _446
REMARK  167  A    between atoms: _449  and  _451
REMARK  168  A    between atoms: _451  and  _452
REMARK  169  A    between atoms: _454  and  _456
REMARK  170  A    between atoms: _456  and  _457
REMARK  171  A    between atoms: _456  and  _459
REMARK  172  A    between atoms: _459  and  _460
REMARK  173  A    between atoms: _466  and  _467
REMARK  174  A    between atoms: _472  and  _474
REMARK  175  A    between atoms: _474  and  _475
REMARK  176  A    between atoms: _477  and  _479
REMARK  177  A    between atoms: _479  and  _480
REMARK  178  A    between atoms: _479  and  _482
REMARK  179  A    between atoms: _482  and  _483
REMARK  180  A    between atoms: _489  and  _491
REMARK  181  A    between atoms: _491  and  _492
REMARK  182  A    between atoms: _491  and  _494
REMARK  183  A    between atoms: _494  and  _495
REMARK  184  A    between atoms: _500  and  _502
REMARK  185  A    between atoms: _502  and  _503
REMARK  186  A    between atoms: _502  and  _505
REMARK  187  A    between atoms: _505  and  _506
REMARK  188  A    between atoms: _506  and  _507
REMARK  189  A    between atoms: _507  and  _508
REMARK  190  A    between atoms: _508  and  ZN_790
REMARK  191  A    between atoms: _510  and  _512
REMARK  192  A    between atoms: _512  and  _513
REMARK  193  A    between atoms: _516  and  _518
REMARK  194  A    between atoms: _518  and  _519
REMARK  195  A    between atoms: _521  and  _523
REMARK  196  A    between atoms: _523  and  _524
REMARK  197  A    between atoms: _523  and  _526
REMARK  198  A    between atoms: _526  and  _527
REMARK  199  A    between atoms: _530  and  _532
REMARK  200  A    between atoms: _532  and  _533
REMARK  201  A    between atoms: _532  and  _535
REMARK  202  A    between atoms: _538  and  _540
REMARK  203  A    between atoms: _540  and  _541
REMARK  204  A    between atoms: _540  and  _543
REMARK  205  A    between atoms: _543  and  _544
REMARK  206  A    between atoms: _546  and  _548
REMARK  207  A    between atoms: _548  and  _549
REMARK  208  A    between atoms: _548  and  _551
REMARK  209  A    between atoms: _551  and  _552
REMARK  210  A    between atoms: _555  and  _557
REMARK  211  A    between atoms: _557  and  _558
REMARK  212  A    between atoms: _557  and  _560
REMARK  213  A    between atoms: _560  and  _561
REMARK  214  A    between atoms: _563  and  _565
REMARK  215  A    between atoms: _565  and  _566
REMARK  216  A    between atoms: _565  and  _568
REMARK  217  A    between atoms: _568  and  _569
REMARK  218  A    between atoms: _572  and  _574
REMARK  219  A    between atoms: _574  and  _575
REMARK  220  A    between atoms: _574  and  _577
REMARK  221  A    between atoms: _577  and  _578
REMARK  222  A    between atoms: _578  and  _579
REMARK  223  A    between atoms: _579  and  _580
REMARK  224  A    between atoms: _580  and  _581
REMARK  225  A    between atoms: _585  and  _587
REMARK  226  A    between atoms: _587  and  _588
REMARK  227  A    between atoms: _587  and  _590
REMARK  228  A    between atoms: _590  and  _591
REMARK  229  A    between atoms: _597  and  _599
REMARK  230  A    between atoms: _599  and  _600
REMARK  231  A    between atoms: _599  and  _602
REMARK  232  A    between atoms: _602  and  _603
REMARK  233  A    between atoms: _609  and  _611
REMARK  234  A    between atoms: _611  and  _612
REMARK  235  A    between atoms: _615  and  _617
REMARK  236  A    between atoms: _617  and  _618
REMARK  237  A    between atoms: _617  and  _620
REMARK  238  A    between atoms: _620  and  _621
REMARK  239  A    between atoms: _621  and  _622
REMARK  240  A    between atoms: _624  and  _626
REMARK  241  A    between atoms: _626  and  _627
REMARK  242  A    between atoms: _626  and  _629
REMARK  243  A    between atoms: _629  and  _630
REMARK  244  A    between atoms: _630  and  _631
REMARK  245  A    between atoms: _631  and  _632
REMARK  246  A    between atoms: _632  and  _633
REMARK  247  A    between atoms: _637  and  _639
REMARK  248  A    between atoms: _639  and  _640
REMARK  249  A    between atoms: _639  and  _642
REMARK  250  A    between atoms: _642  and  _643
REMARK  251  A    between atoms: _648  and  _649
REMARK  252  A    between atoms: _651  and  _653
REMARK  253  A    between atoms: _653  and  _654
REMARK  254  A    between atoms: _653  and  _656
REMARK  255  A    between atoms: _656  and  _657
REMARK  256  A    between atoms: _662  and  _664
REMARK  257  A    between atoms: _664  and  _665
REMARK  258  A    between atoms: _664  and  _667
REMARK  259  A    between atoms: _667  and  _668
REMARK  260  A    between atoms: _671  and  _673
REMARK  261  A    between atoms: _673  and  _674
REMARK  262  A    between atoms: _677  and  _679
REMARK  263  A    between atoms: _679  and  _680
REMARK  264  A    between atoms: _679  and  _682
REMARK  265  A    between atoms: _682  and  _683
REMARK  266  A    between atoms: _686  and  _688
REMARK  267  A    between atoms: _688  and  _689
REMARK  268  A    between atoms: _688  and  _691
REMARK  269  A    between atoms: _694  and  _696
REMARK  270  A    between atoms: _696  and  _697
REMARK  271  A    between atoms: _696  and  _699
REMARK  272  A    between atoms: _699  and  _700
REMARK  273  A    between atoms: _700  and  _701
REMARK  274  A    between atoms: _704  and  _706
REMARK  275  A    between atoms: _706  and  _707
REMARK  276  A    between atoms: _706  and  _709
REMARK  277  A    between atoms: _709  and  _710
REMARK  278  A    between atoms: _715  and  _716
REMARK  279  A    between atoms: _718  and  _720
REMARK  280  A    between atoms: _720  and  _721
REMARK  281  A    between atoms: _720  and  _723
REMARK  282  A    between atoms: _723  and  _724
REMARK  283  A    between atoms: _724  and  _725
REMARK  284  A    between atoms: _725  and  _726
REMARK  285  A    between atoms: _735  and  _737
REMARK  286  A    between atoms: _737  and  _738
REMARK  287  A    between atoms: _737  and  _740
REMARK  288  A    between atoms: _740  and  _741
REMARK  289  A    between atoms: _746  and  _747
REMARK  290  A    between atoms: _749  and  _751
REMARK  291  A    between atoms: _751  and  _752
REMARK  292  A    between atoms: _751  and  _754
REMARK  293  A    between atoms: _754  and  _755
REMARK  294  A    between atoms: _758  and  _760
REMARK  295  A    between atoms: _760  and  _761
REMARK  296  A    between atoms: _760  and  _763
REMARK  297  A    between atoms: _763  and  _764
REMARK  298  A    between atoms: _766  and  _768
REMARK  299  A    between atoms: _768  and  _769
REMARK  300  A    between atoms: _768  and  _771
REMARK  301  A    between atoms: _771  and  _772
REMARK  302  A    between atoms: _778  and  _780
REMARK  303  A    between atoms: _780  and  _781
REMARK  304  A    between atoms: _780  and  _783
REMARK  305  A    between atoms: _783  and  _784
REMARK  306  A    between atoms: _784  and  _785
REMARK                            x       y       z     vdW  Elec       q    Type
REMARK                         _______ _______ _______ _____ _____    ______ ____
ROOT
ATOM      1  C   SER A   1      32.459  -7.295  20.465  0.00  0.00    +0.241 C 
ATOM      2  O   SER A   1      31.815  -8.059  21.178  0.00  0.00    -0.274 OA
ATOM      3  N   PHE A   2      33.425  -7.724  19.650  0.00  0.00    -0.298 N 
ATOM      4  H   PHE A   2      33.957  -7.041  19.074  0.00  0.00    +0.150 HD
ENDROOT
BRANCH   1   5
ATOM      5  CA  SER A   1      32.155  -5.791  20.470  0.00  0.00    +0.174 C 
BRANCH   5   6
ATOM      6  N   SER A   1      33.351  -4.950  20.655  0.00  0.00    -0.236 NA
ATOM      7  H   SER A   1      33.527  -4.177  19.982  0.00  0.00    +0.142 HD
ENDBRANCH   5   6
BRANCH   5   8
ATOM      8  CB  SER A   1      31.435  -5.419  19.171  0.00  0.00    +0.163 C 
BRANCH   8   9
ATOM      9  OG  SER A   1      30.406  -6.349  18.874  0.00  0.00    -0.380 OA
ATOM     10  H   SER A   1      29.958  -6.086  18.031  0.00  0.00    +0.211 HD
ENDBRANCH   8   9
ENDBRANCH   5   8
ENDBRANCH   1   5
BRANCH   3  11
ATOM     11  CA  PHE A   2      33.742  -9.162  19.561  0.00  0.00    +0.141 C 
BRANCH  11  12
ATOM     12  C   PHE A   2      34.235  -9.784  20.862  0.00  0.00    +0.227 C 
ATOM     13  O   PHE A   2      34.022 -10.978  21.072  0.00  0.00    -0.286 OA
ENDBRANCH  11  12
BRANCH  11  14
ATOM     14  CB  PHE A   2      34.695  -9.469  18.417  0.00  0.00    +0.054 C 
BRANCH  14  15
ATOM     15  CG  PHE A   2      33.998  -9.677  17.100  0.00  0.00    -0.020 A 
ATOM     16  CD2 PHE A   2      33.036  -8.768  16.649  0.00  0.00    -0.004 A 
ATOM     17  CE2 PHE A   2      32.399  -8.959  15.414  0.00  0.00    -0.000 A 
ATOM     18  CZ  PHE A   2      32.711 -10.079  14.648  0.00  0.00    -0.000 A 
ATOM     19  CE1 PHE A   2      33.666 -10.988  15.091  0.00  0.00    -0.000 A 
ATOM     20  CD1 PHE A   2      34.296 -10.791  16.315  0.00  0.00    -0.004 A 
ENDBRANCH  14  15
ENDBRANCH  11  14
ENDBRANCH   3  11
TORSDOF 8
REMARK  Name = ../refined-set-2016/4ca7/4ca7_pocket.pdb
REMARK  306 active torsions:
REMARK  status: ('A' for Active; 'I' for Inactive)
REMARK    1  A    between atoms: _1  and  _3
REMARK    2  A    between atoms: _3  and  _4
REMARK    3  A    between atoms: _3  and  _6
REMARK    4  A    between atoms: _6  and  _7
REMARK    5  A    between atoms: _7  and  _8
REMARK    6  A    between atoms: _8  and  _9
REMARK    7  A    between atoms: _9  and  _10
REMARK    8  A    between atoms: _14  and  _16
REMARK    9  A    between atoms: _16  and  _17
REMARK   10  A    between atoms: _16  and  _19
REMARK   11  A    between atoms: _19  and  _20
REMARK   12  A    between atoms: _20  and  _21
REMARK   13  A    between atoms: _24  and  _26
REMARK   14  A    between atoms: _26  and  _27
REMARK   15  A    between atoms: _26  and  _29
REMARK   16  A    between atoms: _29  and  _30
REMARK   17  A    between atoms: _30  and  _31
REMARK   18  A    between atoms: _34  and  _36
REMARK   19  A    between atoms: _36  and  _37
REMARK   20  A    between atoms: _36  and  _39
REMARK   21  A    between atoms: _39  and  _40
REMARK   22  A    between atoms: _45  and  _47
REMARK   23  A    between atoms: _47  and  _48
REMARK   24  A    between atoms: _47  and  _50
REMARK   25  A    between atoms: _50  and  _51
REMARK   26  A    between atoms: _61  and  _63
REMARK   27  A    between atoms: _63  and  _64
REMARK   28  A    between atoms: _63  and  _66
REMARK   29  A    between atoms: _66  and  _67
REMARK   30  A    between atoms: _67  and  _68
REMARK   31  A    between atoms: _73  and  _75
REMARK   32  A    between atoms: _75  and  _76
REMARK   33  A    between atoms: _75  and  _78
REMARK   34  A    between atoms: _78  and  _79
REMARK   35  A    between atoms: _79  and  _80
REMARK   36  A    between atoms: _85  and  _87
REMARK   37  A    between atoms: _87  and  _88
REMARK   38  A    between atoms: _87  and  _90
REMARK   39  A    between atoms: _90  and  _91
REMARK   40  A    between atoms: _93  and  _95
REMARK   41  A    between atoms: _95  and  _96
REMARK   42  A    between atoms: _95  and  _98
REMARK   43  A    between atoms: _101  and  _103
REMARK   44  A    between atoms: _103  and  _104
REMARK   45  A    between atoms: _103  and  _106
REMARK   46  A    between atoms: _108  and  _110
REMARK   47  A    between atoms: _110  and  _111
REMARK   48  A    between atoms: _110  and  _113
REMARK   49  A    between atoms: _113  and  _114
REMARK   50  A    between atoms: _119  and  _121
REMARK   51  A    between atoms: _121  and  _122
REMARK   52  A    between atoms: _125  and  _127
REMARK   53  A    between atoms: _127  and  _128
REMARK   54  A    between atoms: _127  and  _130
REMARK   55  A    between atoms: _130  and  _131
REMARK   56  A    between atoms: _133  and  _135
REMARK   57  A    between atoms: _135  and  _136
REMARK   58  A    between atoms: _139  and  _141
REMARK   59  A    between atoms: _141  and  _142
REMARK   60  A    between atoms: _141  and  _144
REMARK   61  A    between atoms: _144  and  _145
REMARK   62  A    between atoms: _155  and  _157
REMARK   63  A    between atoms: _157  and  _158
REMARK   64  A    between atoms: _157  and  _160
REMARK   65  A    between atoms: _160  and  _161
REMARK   66  A    between atoms: _164  and  _166
REMARK   67  A    between atoms: _166  and  _167
REMARK   68  A    between atoms: _166  and  _169
REMARK   69  A    between atoms: _169  and  _170
REMARK   70  A    between atoms: _175  and  _176
REMARK   71  A    between atoms: _178  and  _180
REMARK   72  A    between atoms: _180  and  _181
REMARK   73  A    between atoms: _180  and  _183
REMARK   74  A    between atoms: _183  and  _184
REMARK   75  A    between atoms: _184  and  _185
REMARK   76  A    between atoms: _185  and  _186
REMARK   77  A    between atoms: _195  and  _197
REMARK   78  A    between atoms: _197  and  _198
REMARK   79  A    between atoms: _197  and  _200
REMARK   80  A    between atoms: _200  and  _201
REMARK   81  A    between atoms: _204  and  _206
REMARK   82  A    between atoms: _206  and  _207
REMARK   83  A    between atoms: _206  and  _209
REMARK   84  A    between atoms: _209  and  _210
REMARK   85  A    between atoms: _210  and  _211
REMARK   86  A    between atoms: _211  and  _212
REMARK   87  A    between atoms: _212  and  _213
REMARK   88  A    between atoms: _217  and  _219
REMARK   89  A    between atoms: _219  and  _220
REMARK   90  A    between atoms: _219  and  _222
REMARK   91  A    between atoms: _222  and  _223
REMARK   92  A    between atoms: _223  and  _224
REMARK   93  A    between atoms: _229  and  _231
REMARK   94  A    between atoms: _231  and  _232
REMARK   95  A    between atoms: _231  and  _234
REMARK   96  A    between atoms: _234  and  _235
REMARK   97  A    between atoms: _235  and  _236
REMARK   98  A    between atoms: _236  and  _237
REMARK   99  A    between atoms: _246  and  _248
REMARK  100  A    between atoms: _248  and  _249
REMARK  101  A    between atoms: _248  and  _251
REMARK  102  A    between atoms: _251  and  _252
REMARK  103  A    between atoms: _252  and  _253
REMARK  104  A    between atoms: _258  and  _260
REMARK  105  A    between atoms: _260  and  _261
REMARK  106  A    between atoms: _260  and  _263
REMARK  107  A    between atoms: _263  and  _264
REMARK  108  A    between atoms: _267  and  _269
REMARK  109  A    between atoms: _269  and  _270
REMARK  110  A    between atoms: _269  and  _272
REMARK  111  A    between atoms: _272  and  _273
REMARK  112  A    between atoms: _273  and  _274
REMARK  113  A    between atoms: _279  and  _281
REMARK  114  A    between atoms: _281  and  _282
REMARK  115  A    between atoms: _281  and  _284
REMARK  116  A    between atoms: _284  and  _285
REMARK  117  A    between atoms: _288  and  _290
REMARK  118  A    between atoms: _290  and  _291
REMARK  119  A    between atoms: _290  and  _293
REMARK  120  A    between atoms: _293  and  _294
REMARK  121  A    between atoms: _300  and  _302
REMARK  122  A    between atoms: _302  and  _303
REMARK  123  A    between atoms: _302  and  _305
REMARK  124  A    between atoms: _305  and  _306
REMARK  125  A    between atoms: _309  and  _311
REMARK  126  A    between atoms: _311  and  _312
REMARK  127  A    between atoms: _311  and  _314
REMARK  128  A    between atoms: _317  and  _319
REMARK  129  A    between atoms: _319  and  _320
REMARK  130  A    between atoms: _319  and  _322
REMARK  131  A    between atoms: _322  and  _323
REMARK  132  A    between atoms: _328  and  _330
REMARK  133  A    between atoms: _341  and  _344
REMARK  134  A    between atoms: _344  and  _345
REMARK  135  A    between atoms: _345  and  _346
REMARK  136  A    between atoms: _351  and  _354
REMARK  137  A    between atoms: _354  and  _355
REMARK  138  A    between atoms: _365  and  _366
REMARK  139  A    between atoms: _374  and  _376
REMARK  140  A    between atoms: _376  and  _377
REMARK  141  A    between atoms: _376  and  _379
REMARK  142  A    between atoms: _379  and  _380
REMARK  143  A    between atoms: _383  and  _385
REMARK  144  A    between atoms: _385  and  _386
REMARK  145  A    between atoms: _385  and  _388
REMARK  146  A    between atoms: _388  and  _389
REMARK  147  A    between atoms: _394  and  _395
REMARK  148  A    between atoms: _397  and  _399
REMARK  149  A    between atoms: _399  and  _400
REMARK  150  A    between atoms: _399  and  _402
REMARK  151  A    between atoms: _402  and  _403
REMARK  152  A    between atoms: _409  and  _411
REMARK  153  A    between atoms: _411  and  _412
REMARK  154  A    between atoms: _411  and  _414
REMARK  155  A    between atoms: _414  and  _415
REMARK  156  A    between atoms: _420  and  _421
REMARK  157  A    between atoms: _423  and  _425
REMARK  158  A    between atoms: _425  and  _426
REMARK  159  A    between atoms: _425  and  _428
REMARK  160  A    between atoms: _428  and  _429
REMARK  161  A    between atoms: _429  and  _430
REMARK  162  A    between atoms: _430  and  _431
REMARK  163  A    between atoms: _440  and  _442
REMARK  164  A    between atoms: _442  and  _443
REMARK  165  A    between atoms: _442  and  _445
REMARK  166  A    between atoms: _445  and  _446
REMARK  167  A    between atoms: _449  and  _451
REMARK  168  A    between atoms: _451  and  _452
REMARK  169  A    between atoms: _454  and  _456
REMARK  170  A    between atoms: _456  and  _457
REMARK  171  A    between atoms: _456  and  _459
REMARK  172  A    between atoms: _459  and  _460
REMARK  173  A    between atoms: _466  and  _467
REMARK  174  A    between atoms: _472  and  _474
REMARK  175  A    between atoms: _474  and  _475
REMARK  176  A    between atoms: _477  and  _479
REMARK  177  A    between atoms: _479  and  _480
REMARK  178  A    between atoms: _479  and  _482
REMARK  179  A    between atoms: _482  and  _483
REMARK  180  A    between atoms: _489  and  _491
REMARK  181  A    between atoms: _491  and  _492
REMARK  182  A    between atoms: _491  and  _494
REMARK  183  A    between atoms: _494  and  _495
REMARK  184  A    between atoms: _500  and  _502
REMARK  185  A    between atoms: _502  and  _503
REMARK  186  A    between atoms: _502  and  _505
REMARK  187  A    between atoms: _505  and  _506
REMARK  188  A    between atoms: _506  and  _507
REMARK  189  A    between atoms: _507  and  _508
REMARK  190  A    between atoms: _508  and  ZN_790
REMARK  191  A    between atoms: _510  and  _512
REMARK  192  A    between atoms: _512  and  _513
REMARK  193  A    between atoms: _516  and  _518
REMARK  194  A    between atoms: _518  and  _519
REMARK  195  A    between atoms: _521  and  _523
REMARK  196  A    between atoms: _523  and  _524
REMARK  197  A    between atoms: _523  and  _526
REMARK  198  A    between atoms: _526  and  _527
REMARK  199  A    between atoms: _530  and  _532
REMARK  200  A    between atoms: _532  and  _533
REMARK  201  A    between atoms: _532  and  _535
REMARK  202  A    between atoms: _538  and  _540
REMARK  203  A    between atoms: _540  and  _541
REMARK  204  A    between atoms: _540  and  _543
REMARK  205  A    between atoms: _543  and  _544
REMARK  206  A    between atoms: _546  and  _548
REMARK  207  A    between atoms: _548  and  _549
REMARK  208  A    between atoms: _548  and  _551
REMARK  209  A    between atoms: _551  and  _552
REMARK  210  A    between atoms: _555  and  _557
REMARK  211  A    between atoms: _557  and  _558
REMARK  212  A    between atoms: _557  and  _560
REMARK  213  A    between atoms: _560  and  _561
REMARK  214  A    between atoms: _563  and  _565
REMARK  215  A    between atoms: _565  and  _566
REMARK  216  A    between atoms: _565  and  _568
REMARK  217  A    between atoms: _568  and  _569
REMARK  218  A    between atoms: _572  and  _574
REMARK  219  A    between atoms: _574  and  _575
REMARK  220  A    between atoms: _574  and  _577
REMARK  221  A    between atoms: _577  and  _578
REMARK  222  A    between atoms: _578  and  _579
REMARK  223  A    between atoms: _579  and  _580
REMARK  224  A    between atoms: _580  and  _581
REMARK  225  A    between atoms: _585  and  _587
REMARK  226  A    between atoms: _587  and  _588
REMARK  227  A    between atoms: _587  and  _590
REMARK  228  A    between atoms: _590  and  _591
REMARK  229  A    between atoms: _597  and  _599
REMARK  230  A    between atoms: _599  and  _600
REMARK  231  A    between atoms: _599  and  _602
REMARK  232  A    between atoms: _602  and  _603
REMARK  233  A    between atoms: _609  and  _611
REMARK  234  A    between atoms: _611  and  _612
REMARK  235  A    between atoms: _615  and  _617
REMARK  236  A    between atoms: _617  and  _618
REMARK  237  A    between atoms: _617  and  _620
REMARK  238  A    between atoms: _620  and  _621
REMARK  239  A    between atoms: _621  and  _622
REMARK  240  A    between atoms: _624  and  _626
REMARK  241  A    between atoms: _626  and  _627
REMARK  242  A    between atoms: _626  and  _629
REMARK  243  A    between atoms: _629  and  _630
REMARK  244  A    between atoms: _630  and  _631
REMARK  245  A    between atoms: _631  and  _632
REMARK  246  A    between atoms: _632  and  _633
REMARK  247  A    between atoms: _637  and  _639
REMARK  248  A    between atoms: _639  and  _640
REMARK  249  A    between atoms: _639  and  _642
REMARK  250  A    between atoms: _642  and  _643
REMARK  251  A    between atoms: _648  and  _649
REMARK  252  A    between atoms: _651  and  _653
REMARK  253  A    between atoms: _653  and  _654
REMARK  254  A    between atoms: _653  and  _656
REMARK  255  A    between atoms: _656  and  _657
REMARK  256  A    between atoms: _662  and  _664
REMARK  257  A    between atoms: _664  and  _665
REMARK  258  A    between atoms: _664  and  _667
REMARK  259  A    between atoms: _667  and  _668
REMARK  260  A    between atoms: _671  and  _673
REMARK  261  A    between atoms: _673  and  _674
REMARK  262  A    between atoms: _677  and  _679
REMARK  263  A    between atoms: _679  and  _680
REMARK  264  A    between atoms: _679  and  _682
REMARK  265  A    between atoms: _682  and  _683
REMARK  266  A    between atoms: _686  and  _688
REMARK  267  A    between atoms: _688  and  _689
REMARK  268  A    between atoms: _688  and  _691
REMARK  269  A    between atoms: _694  and  _696
REMARK  270  A    between atoms: _696  and  _697
REMARK  271  A    between atoms: _696  and  _699
REMARK  272  A    between atoms: _699  and  _700
REMARK  273  A    between atoms: _700  and  _701
REMARK  274  A    between atoms: _704  and  _706
REMARK  275  A    between atoms: _706  and  _707
REMARK  276  A    between atoms: _706  and  _709
REMARK  277  A    between atoms: _709  and  _710
REMARK  278  A    between atoms: _715  and  _716
REMARK  279  A    between atoms: _718  and  _720
REMARK  280  A    between atoms: _720  and  _721
REMARK  281  A    between atoms: _720  and  _723
REMARK  282  A    between atoms: _723  and  _724
REMARK  283  A    between atoms: _724  and  _725
REMARK  284  A    between atoms: _725  and  _726
REMARK  285  A    between atoms: _735  and  _737
REMARK  286  A    between atoms: _737  and  _738
REMARK  287  A    between atoms: _737  and  _740
REMARK  288  A    between atoms: _740  and  _741
REMARK  289  A    between atoms: _746  and  _747
REMARK  290  A    between atoms: _749  and  _751
REMARK  291  A    between atoms: _751  and  _752
REMARK  292  A    between atoms: _751  and  _754
REMARK  293  A    between atoms: _754  and  _755
REMARK  294  A    between atoms: _758  and  _760
REMARK  295  A    between atoms: _760  and  _761
REMARK  296  A    between atoms: _760  and  _763
REMARK  297  A    between atoms: _763  and  _764
REMARK  298  A    between atoms: _766  and  _768
REMARK  299  A    between atoms: _768  and  _769
REMARK  300  A    between atoms: _768  and  _771
REMARK  301  A    between atoms: _771  and  _772
REMARK  302  A    between atoms: _778  and  _780
REMARK  303  A    between atoms: _780  and  _781
REMARK  304  A    between atoms: _780  and  _783
REMARK  305  A    between atoms: _783  and  _784
REMARK  306  A    between atoms: _784  and  _785
REMARK                            x       y       z     vdW  Elec       q    Type
REMARK                         _______ _______ _______ _____ _____    ______ ____
ROOT
ATOM      1  CB  GLN A   1      29.352 -10.023  21.657  0.00  0.00    +0.035 C 
ENDROOT
BRANCH   1   2
ATOM      2  CA  GLN A   1      29.576  -9.983  23.173  0.00  0.00    +0.134 C 
BRANCH   2   3
ATOM      3  N   GLN A   1      30.781  -9.209  23.532  0.00  0.00    -0.239 NA
ATOM      4  H   GLN A   1      31.426  -8.868  22.791  0.00  0.00    +0.142 HD
ENDBRANCH   2   3
BRANCH   2   5
ATOM      5  C   GLN A   1      29.611 -11.409  23.755  0.00  0.00    +0.224 C 
ATOM      6  O   GLN A   1      28.564 -12.016  23.979  0.00  0.00    -0.287 OA
ENDBRANCH   2   5
ENDBRANCH   1   2
BRANCH   1   7
ATOM      7  CG  GLN A   1      30.352 -10.878  20.900  0.00  0.00    +0.087 C 
BRANCH   7   8
ATOM      8  CD  GLN A   1      30.155 -10.781  19.402  0.00  0.00    +0.219 C 
ATOM      9  NE2 GLN A   1      30.214  -9.561  18.871  0.00  0.00    -0.329 N 
ATOM     10 HE21 GLN A   1      30.414  -8.739  19.477  0.00  0.00    +0.145 HD
ATOM     11 HE22 GLN A   1      30.060  -9.430  17.851  0.00  0.00    +0.145 HD
ATOM     12  OE1 GLN A   1      29.923 -11.785  18.734  0.00  0.00    -0.275 OA
ENDBRANCH   7   8
ENDBRANCH   1   7
TORSDOF 5
REMARK  Name = ../refined-set-2016/4ca7/4ca7_pocket.pdb
REMARK  306 active torsions:
REMARK  status: ('A' for Active; 'I' for Inactive)
REMARK    1  A    between atoms: _1  and  _3
REMARK    2  A    between atoms: _3  and  _4
REMARK    3  A    between atoms: _3  and  _6
REMARK    4  A    between atoms: _6  and  _7
REMARK    5  A    between atoms: _7  and  _8
REMARK    6  A    between atoms: _8  and  _9
REMARK    7  A    between atoms: _9  and  _10
REMARK    8  A    between atoms: _14  and  _16
REMARK    9  A    between atoms: _16  and  _17
REMARK   10  A    between atoms: _16  and  _19
REMARK   11  A    between atoms: _19  and  _20
REMARK   12  A    between atoms: _20  and  _21
REMARK   13  A    between atoms: _24  and  _26
REMARK   14  A    between atoms: _26  and  _27
REMARK   15  A    between atoms: _26  and  _29
REMARK   16  A    between atoms: _29  and  _30
REMARK   17  A    between atoms: _30  and  _31
REMARK   18  A    between atoms: _34  and  _36
REMARK   19  A    between atoms: _36  and  _37
REMARK   20  A    between atoms: _36  and  _39
REMARK   21  A    between atoms: _39  and  _40
REMARK   22  A    between atoms: _45  and  _47
REMARK   23  A    between atoms: _47  and  _48
REMARK   24  A    between atoms: _47  and  _50
REMARK   25  A    between atoms: _50  and  _51
REMARK   26  A    between atoms: _61  and  _63
REMARK   27  A    between atoms: _63  and  _64
REMARK   28  A    between atoms: _63  and  _66
REMARK   29  A    between atoms: _66  and  _67
REMARK   30  A    between atoms: _67  and  _68
REMARK   31  A    between atoms: _73  and  _75
REMARK   32  A    between atoms: _75  and  _76
REMARK   33  A    between atoms: _75  and  _78
REMARK   34  A    between atoms: _78  and  _79
REMARK   35  A    between atoms: _79  and  _80
REMARK   36  A    between atoms: _85  and  _87
REMARK   37  A    between atoms: _87  and  _88
REMARK   38  A    between atoms: _87  and  _90
REMARK   39  A    between atoms: _90  and  _91
REMARK   40  A    between atoms: _93  and  _95
REMARK   41  A    between atoms: _95  and  _96
REMARK   42  A    between atoms: _95  and  _98
REMARK   43  A    between atoms: _101  and  _103
REMARK   44  A    between atoms: _103  and  _104
REMARK   45  A    between atoms: _103  and  _106
REMARK   46  A    between atoms: _108  and  _110
REMARK   47  A    between atoms: _110  and  _111
REMARK   48  A    between atoms: _110  and  _113
REMARK   49  A    between atoms: _113  and  _114
REMARK   50  A    between atoms: _119  and  _121
REMARK   51  A    between atoms: _121  and  _122
REMARK   52  A    between atoms: _125  and  _127
REMARK   53  A    between atoms: _127  and  _128
REMARK   54  A    between atoms: _127  and  _130
REMARK   55  A    between atoms: _130  and  _131
REMARK   56  A    between atoms: _133  and  _135
REMARK   57  A    between atoms: _135  and  _136
REMARK   58  A    between atoms: _139  and  _141
REMARK   59  A    between atoms: _141  and  _142
REMARK   60  A    between atoms: _141  and  _144
REMARK   61  A    between atoms: _144  and  _145
REMARK   62  A    between atoms: _155  and  _157
REMARK   63  A    between atoms: _157  and  _158
REMARK   64  A    between atoms: _157  and  _160
REMARK   65  A    between atoms: _160  and  _161
REMARK   66  A    between atoms: _164  and  _166
REMARK   67  A    between atoms: _166  and  _167
REMARK   68  A    between atoms: _166  and  _169
REMARK   69  A    between atoms: _169  and  _170
REMARK   70  A    between atoms: _175  and  _176
REMARK   71  A    between atoms: _178  and  _180
REMARK   72  A    between atoms: _180  and  _181
REMARK   73  A    between atoms: _180  and  _183
REMARK   74  A    between atoms: _183  and  _184
REMARK   75  A    between atoms: _184  and  _185
REMARK   76  A    between atoms: _185  and  _186
REMARK   77  A    between atoms: _195  and  _197
REMARK   78  A    between atoms: _197  and  _198
REMARK   79  A    between atoms: _197  and  _200
REMARK   80  A    between atoms: _200  and  _201
REMARK   81  A    between atoms: _204  and  _206
REMARK   82  A    between atoms: _206  and  _207
REMARK   83  A    between atoms: _206  and  _209
REMARK   84  A    between atoms: _209  and  _210
REMARK   85  A    between atoms: _210  and  _211
REMARK   86  A    between atoms: _211  and  _212
REMARK   87  A    between atoms: _212  and  _213
REMARK   88  A    between atoms: _217  and  _219
REMARK   89  A    between atoms: _219  and  _220
REMARK   90  A    between atoms: _219  and  _222
REMARK   91  A    between atoms: _222  and  _223
REMARK   92  A    between atoms: _223  and  _224
REMARK   93  A    between atoms: _229  and  _231
REMARK   94  A    between atoms: _231  and  _232
REMARK   95  A    between atoms: _231  and  _234
REMARK   96  A    between atoms: _234  and  _235
REMARK   97  A    between atoms: _235  and  _236
REMARK   98  A    between atoms: _236  and  _237
REMARK   99  A    between atoms: _246  and  _248
REMARK  100  A    between atoms: _248  and  _249
REMARK  101  A    between atoms: _248  and  _251
REMARK  102  A    between atoms: _251  and  _252
REMARK  103  A    between atoms: _252  and  _253
REMARK  104  A    between atoms: _258  and  _260
REMARK  105  A    between atoms: _260  and  _261
REMARK  106  A    between atoms: _260  and  _263
REMARK  107  A    between atoms: _263  and  _264
REMARK  108  A    between atoms: _267  and  _269
REMARK  109  A    between atoms: _269  and  _270
REMARK  110  A    between atoms: _269  and  _272
REMARK  111  A    between atoms: _272  and  _273
REMARK  112  A    between atoms: _273  and  _274
REMARK  113  A    between atoms: _279  and  _281
REMARK  114  A    between atoms: _281  and  _282
REMARK  115  A    between atoms: _281  and  _284
REMARK  116  A    between atoms: _284  and  _285
REMARK  117  A    between atoms: _288  and  _290
REMARK  118  A    between atoms: _290  and  _291
REMARK  119  A    between atoms: _290  and  _293
REMARK  120  A    between atoms: _293  and  _294
REMARK  121  A    between atoms: _300  and  _302
REMARK  122  A    between atoms: _302  and  _303
REMARK  123  A    between atoms: _302  and  _305
REMARK  124  A    between atoms: _305  and  _306
REMARK  125  A    between atoms: _309  and  _311
REMARK  126  A    between atoms: _311  and  _312
REMARK  127  A    between atoms: _311  and  _314
REMARK  128  A    between atoms: _317  and  _319
REMARK  129  A    between atoms: _319  and  _320
REMARK  130  A    between atoms: _319  and  _322
REMARK  131  A    between atoms: _322  and  _323
REMARK  132  A    between atoms: _328  and  _330
REMARK  133  A    between atoms: _341  and  _344
REMARK  134  A    between atoms: _344  and  _345
REMARK  135  A    between atoms: _345  and  _346
REMARK  136  A    between atoms: _351  and  _354
REMARK  137  A    between atoms: _354  and  _355
REMARK  138  A    between atoms: _365  and  _366
REMARK  139  A    between atoms: _374  and  _376
REMARK  140  A    between atoms: _376  and  _377
REMARK  141  A    between atoms: _376  and  _379
REMARK  142  A    between atoms: _379  and  _380
REMARK  143  A    between atoms: _383  and  _385
REMARK  144  A    between atoms: _385  and  _386
REMARK  145  A    between atoms: _385  and  _388
REMARK  146  A    between atoms: _388  and  _389
REMARK  147  A    between atoms: _394  and  _395
REMARK  148  A    between atoms: _397  and  _399
REMARK  149  A    between atoms: _399  and  _400
REMARK  150  A    between atoms: _399  and  _402
REMARK  151  A    between atoms: _402  and  _403
REMARK  152  A    between atoms: _409  and  _411
REMARK  153  A    between atoms: _411  and  _412
REMARK  154  A    between atoms: _411  and  _414
REMARK  155  A    between atoms: _414  and  _415
REMARK  156  A    between atoms: _420  and  _421
REMARK  157  A    between atoms: _423  and  _425
REMARK  158  A    between atoms: _425  and  _426
REMARK  159  A    between atoms: _425  and  _428
REMARK  160  A    between atoms: _428  and  _429
REMARK  161  A    between atoms: _429  and  _430
REMARK  162  A    between atoms: _430  and  _431
REMARK  163  A    between atoms: _440  and  _442
REMARK  164  A    between atoms: _442  and  _443
REMARK  165  A    between atoms: _442  and  _445
REMARK  166  A    between atoms: _445  and  _446
REMARK  167  A    between atoms: _449  and  _451
REMARK  168  A    between atoms: _451  and  _452
REMARK  169  A    between atoms: _454  and  _456
REMARK  170  A    between atoms: _456  and  _457
REMARK  171  A    between atoms: _456  and  _459
REMARK  172  A    between atoms: _459  and  _460
REMARK  173  A    between atoms: _466  and  _467
REMARK  174  A    between atoms: _472  and  _474
REMARK  175  A    between atoms: _474  and  _475
REMARK  176  A    between atoms: _477  and  _479
REMARK  177  A    between atoms: _479  and  _480
REMARK  178  A    between atoms: _479  and  _482
REMARK  179  A    between atoms: _482  and  _483
REMARK  180  A    between atoms: _489  and  _491
REMARK  181  A    between atoms: _491  and  _492
REMARK  182  A    between atoms: _491  and  _494
REMARK  183  A    between atoms: _494  and  _495
REMARK  184  A    between atoms: _500  and  _502
REMARK  185  A    between atoms: _502  and  _503
REMARK  186  A    between atoms: _502  and  _505
REMARK  187  A    between atoms: _505  and  _506
REMARK  188  A    between atoms: _506  and  _507
REMARK  189  A    between atoms: _507  and  _508
REMARK  190  A    between atoms: _508  and  ZN_790
REMARK  191  A    between atoms: _510  and  _512
REMARK  192  A    between atoms: _512  and  _513
REMARK  193  A    between atoms: _516  and  _518
REMARK  194  A    between atoms: _518  and  _519
REMARK  195  A    between atoms: _521  and  _523
REMARK  196  A    between atoms: _523  and  _524
REMARK  197  A    between atoms: _523  and  _526
REMARK  198  A    between atoms: _526  and  _527
REMARK  199  A    between atoms: _530  and  _532
REMARK  200  A    between atoms: _532  and  _533
REMARK  201  A    between atoms: _532  and  _535
REMARK  202  A    between atoms: _538  and  _540
REMARK  203  A    between atoms: _540  and  _541
REMARK  204  A    between atoms: _540  and  _543
REMARK  205  A    between atoms: _543  and  _544
REMARK  206  A    between atoms: _546  and  _548
REMARK  207  A    between atoms: _548  and  _549
REMARK  208  A    between atoms: _548  and  _551
REMARK  209  A    between atoms: _551  and  _552
REMARK  210  A    between atoms: _555  and  _557
REMARK  211  A    between atoms: _557  and  _558
REMARK  212  A    between atoms: _557  and  _560
REMARK  213  A    between atoms: _560  and  _561
REMARK  214  A    between atoms: _563  and  _565
REMARK  215  A    between atoms: _565  and  _566
REMARK  216  A    between atoms: _565  and  _568
REMARK  217  A    between atoms: _568  and  _569
REMARK  218  A    between atoms: _572  and  _574
REMARK  219  A    between atoms: _574  and  _575
REMARK  220  A    between atoms: _574  and  _577
REMARK  221  A    between atoms: _577  and  _578
REMARK  222  A    between atoms: _578  and  _579
REMARK  223  A    between atoms: _579  and  _580
REMARK  224  A    between atoms: _580  and  _581
REMARK  225  A    between atoms: _585  and  _587
REMARK  226  A    between atoms: _587  and  _588
REMARK  227  A    between atoms: _587  and  _590
REMARK  228  A    between atoms: _590  and  _591
REMARK  229  A    between atoms: _597  and  _599
REMARK  230  A    between atoms: _599  and  _600
REMARK  231  A    between atoms: _599  and  _602
REMARK  232  A    between atoms: _602  and  _603
REMARK  233  A    between atoms: _609  and  _611
REMARK  234  A    between atoms: _611  and  _612
REMARK  235  A    between atoms: _615  and  _617
REMARK  236  A    between atoms: _617  and  _618
REMARK  237  A    between atoms: _617  and  _620
REMARK  238  A    between atoms: _620  and  _621
REMARK  239  A    between atoms: _621  and  _622
REMARK  240  A    between atoms: _624  and  _626
REMARK  241  A    between atoms: _626  and  _627
REMARK  242  A    between atoms: _626  and  _629
REMARK  243  A    between atoms: _629  and  _630
REMARK  244  A    between atoms: _630  and  _631
REMARK  245  A    between atoms: _631  and  _632
REMARK  246  A    between atoms: _632  and  _633
REMARK  247  A    between atoms: _637  and  _639
REMARK  248  A    between atoms: _639  and  _640
REMARK  249  A    between atoms: _639  and  _642
REMARK  250  A    between atoms: _642  and  _643
REMARK  251  A    between atoms: _648  and  _649
REMARK  252  A    between atoms: _651  and  _653
REMARK  253  A    between atoms: _653  and  _654
REMARK  254  A    between atoms: _653  and  _656
REMARK  255  A    between atoms: _656  and  _657
REMARK  256  A    between atoms: _662  and  _664
REMARK  257  A    between atoms: _664  and  _665
REMARK  258  A    between atoms: _664  and  _667
REMARK  259  A    between atoms: _667  and  _668
REMARK  260  A    between atoms: _671  and  _673
REMARK  261  A    between atoms: _673  and  _674
REMARK  262  A    between atoms: _677  and  _679
REMARK  263  A    between atoms: _679  and  _680
REMARK  264  A    between atoms: _679  and  _682
REMARK  265  A    between atoms: _682  and  _683
REMARK  266  A    between atoms: _686  and  _688
REMARK  267  A    between atoms: _688  and  _689
REMARK  268  A    between atoms: _688  and  _691
REMARK  269  A    between atoms: _694  and  _696
REMARK  270  A    between atoms: _696  and  _697
REMARK  271  A    between atoms: _696  and  _699
REMARK  272  A    between atoms: _699  and  _700
REMARK  273  A    between atoms: _700  and  _701
REMARK  274  A    between atoms: _704  and  _706
REMARK  275  A    between atoms: _706  and  _707
REMARK  276  A    between atoms: _706  and  _709
REMARK  277  A    between atoms: _709  and  _710
REMARK  278  A    between atoms: _715  and  _716
REMARK  279  A    between atoms: _718  and  _720
REMARK  280  A    between atoms: _720  and  _721
REMARK  281  A    between atoms: _720  and  _723
REMARK  282  A    between atoms: _723  and  _724
REMARK  283  A    between atoms: _724  and  _725
REMARK  284  A    between atoms: _725  and  _726
REMARK  285  A    between atoms: _735  and  _737
REMARK  286  A    between atoms: _737  and  _738
REMARK  287  A    between atoms: _737  and  _740
REMARK  288  A    between atoms: _740  and  _741
REMARK  289  A    between atoms: _746  and  _747
REMARK  290  A    between atoms: _749  and  _751
REMARK  291  A    between atoms: _751  and  _752
REMARK  292  A    between atoms: _751  and  _754
REMARK  293  A    between atoms: _754  and  _755
REMARK  294  A    between atoms: _758  and  _760
REMARK  295  A    between atoms: _760  and  _761
REMARK  296  A    between atoms: _760  and  _763
REMARK  297  A    between atoms: _763  and  _764
REMARK  298  A    between atoms: _766  and  _768
REMARK  299  A    between atoms: _768  and  _769
REMARK  300  A    between atoms: _768  and  _771
REMARK  301  A    between atoms: _771  and  _772
REMARK  302  A    between atoms: _778  and  _780
REMARK  303  A    between atoms: _780  and  _781
REMARK  304  A    between atoms: _780  and  _783
REMARK  305  A    between atoms: _783  and  _784
REMARK  306  A    between atoms: _784  and  _785
REMARK                            x       y       z     vdW  Elec       q    Type
REMARK                         _______ _______ _______ _____ _____    ______ ____
ROOT
ATOM      1  O   HOH     1      26.588  12.402  12.016  0.00  0.00    +0.000 OA
ENDROOT
TORSDOF 0
REMARK  Name = ../refined-set-2016/4ca7/4ca7_pocket.pdb
REMARK  306 active torsions:
REMARK  status: ('A' for Active; 'I' for Inactive)
REMARK    1  A    between atoms: _1  and  _3
REMARK    2  A    between atoms: _3  and  _4
REMARK    3  A    between atoms: _3  and  _6
REMARK    4  A    between atoms: _6  and  _7
REMARK    5  A    between atoms: _7  and  _8
REMARK    6  A    between atoms: _8  and  _9
REMARK    7  A    between atoms: _9  and  _10
REMARK    8  A    between atoms: _14  and  _16
REMARK    9  A    between atoms: _16  and  _17
REMARK   10  A    between atoms: _16  and  _19
REMARK   11  A    between atoms: _19  and  _20
REMARK   12  A    between atoms: _20  and  _21
REMARK   13  A    between atoms: _24  and  _26
REMARK   14  A    between atoms: _26  and  _27
REMARK   15  A    between atoms: _26  and  _29
REMARK   16  A    between atoms: _29  and  _30
REMARK   17  A    between atoms: _30  and  _31
REMARK   18  A    between atoms: _34  and  _36
REMARK   19  A    between atoms: _36  and  _37
REMARK   20  A    between atoms: _36  and  _39
REMARK   21  A    between atoms: _39  and  _40
REMARK   22  A    between atoms: _45  and  _47
REMARK   23  A    between atoms: _47  and  _48
REMARK   24  A    between atoms: _47  and  _50
REMARK   25  A    between atoms: _50  and  _51
REMARK   26  A    between atoms: _61  and  _63
REMARK   27  A    between atoms: _63  and  _64
REMARK   28  A    between atoms: _63  and  _66
REMARK   29  A    between atoms: _66  and  _67
REMARK   30  A    between atoms: _67  and  _68
REMARK   31  A    between atoms: _73  and  _75
REMARK   32  A    between atoms: _75  and  _76
REMARK   33  A    between atoms: _75  and  _78
REMARK   34  A    between atoms: _78  and  _79
REMARK   35  A    between atoms: _79  and  _80
REMARK   36  A    between atoms: _85  and  _87
REMARK   37  A    between atoms: _87  and  _88
REMARK   38  A    between atoms: _87  and  _90
REMARK   39  A    between atoms: _90  and  _91
REMARK   40  A    between atoms: _93  and  _95
REMARK   41  A    between atoms: _95  and  _96
REMARK   42  A    between atoms: _95  and  _98
REMARK   43  A    between atoms: _101  and  _103
REMARK   44  A    between atoms: _103  and  _104
REMARK   45  A    between atoms: _103  and  _106
REMARK   46  A    between atoms: _108  and  _110
REMARK   47  A    between atoms: _110  and  _111
REMARK   48  A    between atoms: _110  and  _113
REMARK   49  A    between atoms: _113  and  _114
REMARK   50  A    between atoms: _119  and  _121
REMARK   51  A    between atoms: _121  and  _122
REMARK   52  A    between atoms: _125  and  _127
REMARK   53  A    between atoms: _127  and  _128
REMARK   54  A    between atoms: _127  and  _130
REMARK   55  A    between atoms: _130  and  _131
REMARK   56  A    between atoms: _133  and  _135
REMARK   57  A    between atoms: _135  and  _136
REMARK   58  A    between atoms: _139  and  _141
REMARK   59  A    between atoms: _141  and  _142
REMARK   60  A    between atoms: _141  and  _144
REMARK   61  A    between atoms: _144  and  _145
REMARK   62  A    between atoms: _155  and  _157
REMARK   63  A    between atoms: _157  and  _158
REMARK   64  A    between atoms: _157  and  _160
REMARK   65  A    between atoms: _160  and  _161
REMARK   66  A    between atoms: _164  and  _166
REMARK   67  A    between atoms: _166  and  _167
REMARK   68  A    between atoms: _166  and  _169
REMARK   69  A    between atoms: _169  and  _170
REMARK   70  A    between atoms: _175  and  _176
REMARK   71  A    between atoms: _178  and  _180
REMARK   72  A    between atoms: _180  and  _181
REMARK   73  A    between atoms: _180  and  _183
REMARK   74  A    between atoms: _183  and  _184
REMARK   75  A    between atoms: _184  and  _185
REMARK   76  A    between atoms: _185  and  _186
REMARK   77  A    between atoms: _195  and  _197
REMARK   78  A    between atoms: _197  and  _198
REMARK   79  A    between atoms: _197  and  _200
REMARK   80  A    between atoms: _200  and  _201
REMARK   81  A    between atoms: _204  and  _206
REMARK   82  A    between atoms: _206  and  _207
REMARK   83  A    between atoms: _206  and  _209
REMARK   84  A    between atoms: _209  and  _210
REMARK   85  A    between atoms: _210  and  _211
REMARK   86  A    between atoms: _211  and  _212
REMARK   87  A    between atoms: _212  and  _213
REMARK   88  A    between atoms: _217  and  _219
REMARK   89  A    between atoms: _219  and  _220
REMARK   90  A    between atoms: _219  and  _222
REMARK   91  A    between atoms: _222  and  _223
REMARK   92  A    between atoms: _223  and  _224
REMARK   93  A    between atoms: _229  and  _231
REMARK   94  A    between atoms: _231  and  _232
REMARK   95  A    between atoms: _231  and  _234
REMARK   96  A    between atoms: _234  and  _235
REMARK   97  A    between atoms: _235  and  _236
REMARK   98  A    between atoms: _236  and  _237
REMARK   99  A    between atoms: _246  and  _248
REMARK  100  A    between atoms: _248  and  _249
REMARK  101  A    between atoms: _248  and  _251
REMARK  102  A    between atoms: _251  and  _252
REMARK  103  A    between atoms: _252  and  _253
REMARK  104  A    between atoms: _258  and  _260
REMARK  105  A    between atoms: _260  and  _261
REMARK  106  A    between atoms: _260  and  _263
REMARK  107  A    between atoms: _263  and  _264
REMARK  108  A    between atoms: _267  and  _269
REMARK  109  A    between atoms: _269  and  _270
REMARK  110  A    between atoms: _269  and  _272
REMARK  111  A    between atoms: _272  and  _273
REMARK  112  A    between atoms: _273  and  _274
REMARK  113  A    between atoms: _279  and  _281
REMARK  114  A    between atoms: _281  and  _282
REMARK  115  A    between atoms: _281  and  _284
REMARK  116  A    between atoms: _284  and  _285
REMARK  117  A    between atoms: _288  and  _290
REMARK  118  A    between atoms: _290  and  _291
REMARK  119  A    between atoms: _290  and  _293
REMARK  120  A    between atoms: _293  and  _294
REMARK  121  A    between atoms: _300  and  _302
REMARK  122  A    between atoms: _302  and  _303
REMARK  123  A    between atoms: _302  and  _305
REMARK  124  A    between atoms: _305  and  _306
REMARK  125  A    between atoms: _309  and  _311
REMARK  126  A    between atoms: _311  and  _312
REMARK  127  A    between atoms: _311  and  _314
REMARK  128  A    between atoms: _317  and  _319
REMARK  129  A    between atoms: _319  and  _320
REMARK  130  A    between atoms: _319  and  _322
REMARK  131  A    between atoms: _322  and  _323
REMARK  132  A    between atoms: _328  and  _330
REMARK  133  A    between atoms: _341  and  _344
REMARK  134  A    between atoms: _344  and  _345
REMARK  135  A    between atoms: _345  and  _346
REMARK  136  A    between atoms: _351  and  _354
REMARK  137  A    between atoms: _354  and  _355
REMARK  138  A    between atoms: _365  and  _366
REMARK  139  A    between atoms: _374  and  _376
REMARK  140  A    between atoms: _376  and  _377
REMARK  141  A    between atoms: _376  and  _379
REMARK  142  A    between atoms: _379  and  _380
REMARK  143  A    between atoms: _383  and  _385
REMARK  144  A    between atoms: _385  and  _386
REMARK  145  A    between atoms: _385  and  _388
REMARK  146  A    between atoms: _388  and  _389
REMARK  147  A    between atoms: _394  and  _395
REMARK  148  A    between atoms: _397  and  _399
REMARK  149  A    between atoms: _399  and  _400
REMARK  150  A    between atoms: _399  and  _402
REMARK  151  A    between atoms: _402  and  _403
REMARK  152  A    between atoms: _409  and  _411
REMARK  153  A    between atoms: _411  and  _412
REMARK  154  A    between atoms: _411  and  _414
REMARK  155  A    between atoms: _414  and  _415
REMARK  156  A    between atoms: _420  and  _421
REMARK  157  A    between atoms: _423  and  _425
REMARK  158  A    between atoms: _425  and  _426
REMARK  159  A    between atoms: _425  and  _428
REMARK  160  A    between atoms: _428  and  _429
REMARK  161  A    between atoms: _429  and  _430
REMARK  162  A    between atoms: _430  and  _431
REMARK  163  A    between atoms: _440  and  _442
REMARK  164  A    between atoms: _442  and  _443
REMARK  165  A    between atoms: _442  and  _445
REMARK  166  A    between atoms: _445  and  _446
REMARK  167  A    between atoms: _449  and  _451
REMARK  168  A    between atoms: _451  and  _452
REMARK  169  A    between atoms: _454  and  _456
REMARK  170  A    between atoms: _456  and  _457
REMARK  171  A    between atoms: _456  and  _459
REMARK  172  A    between atoms: _459  and  _460
REMARK  173  A    between atoms: _466  and  _467
REMARK  174  A    between atoms: _472  and  _474
REMARK  175  A    between atoms: _474  and  _475
REMARK  176  A    between atoms: _477  and  _479
REMARK  177  A    between atoms: _479  and  _480
REMARK  178  A    between atoms: _479  and  _482
REMARK  179  A    between atoms: _482  and  _483
REMARK  180  A    between atoms: _489  and  _491
REMARK  181  A    between atoms: _491  and  _492
REMARK  182  A    between atoms: _491  and  _494
REMARK  183  A    between atoms: _494  and  _495
REMARK  184  A    between atoms: _500  and  _502
REMARK  185  A    between atoms: _502  and  _503
REMARK  186  A    between atoms: _502  and  _505
REMARK  187  A    between atoms: _505  and  _506
REMARK  188  A    between atoms: _506  and  _507
REMARK  189  A    between atoms: _507  and  _508
REMARK  190  A    between atoms: _508  and  ZN_790
REMARK  191  A    between atoms: _510  and  _512
REMARK  192  A    between atoms: _512  and  _513
REMARK  193  A    between atoms: _516  and  _518
REMARK  194  A    between atoms: _518  and  _519
REMARK  195  A    between atoms: _521  and  _523
REMARK  196  A    between atoms: _523  and  _524
REMARK  197  A    between atoms: _523  and  _526
REMARK  198  A    between atoms: _526  and  _527
REMARK  199  A    between atoms: _530  and  _532
REMARK  200  A    between atoms: _532  and  _533
REMARK  201  A    between atoms: _532  and  _535
REMARK  202  A    between atoms: _538  and  _540
REMARK  203  A    between atoms: _540  and  _541
REMARK  204  A    between atoms: _540  and  _543
REMARK  205  A    between atoms: _543  and  _544
REMARK  206  A    between atoms: _546  and  _548
REMARK  207  A    between atoms: _548  and  _549
REMARK  208  A    between atoms: _548  and  _551
REMARK  209  A    between atoms: _551  and  _552
REMARK  210  A    between atoms: _555  and  _557
REMARK  211  A    between atoms: _557  and  _558
REMARK  212  A    between atoms: _557  and  _560
REMARK  213  A    between atoms: _560  and  _561
REMARK  214  A    between atoms: _563  and  _565
REMARK  215  A    between atoms: _565  and  _566
REMARK  216  A    between atoms: _565  and  _568
REMARK  217  A    between atoms: _568  and  _569
REMARK  218  A    between atoms: _572  and  _574
REMARK  219  A    between atoms: _574  and  _575
REMARK  220  A    between atoms: _574  and  _577
REMARK  221  A    between atoms: _577  and  _578
REMARK  222  A    between atoms: _578  and  _579
REMARK  223  A    between atoms: _579  and  _580
REMARK  224  A    between atoms: _580  and  _581
REMARK  225  A    between atoms: _585  and  _587
REMARK  226  A    between atoms: _587  and  _588
REMARK  227  A    between atoms: _587  and  _590
REMARK  228  A    between atoms: _590  and  _591
REMARK  229  A    between atoms: _597  and  _599
REMARK  230  A    between atoms: _599  and  _600
REMARK  231  A    between atoms: _599  and  _602
REMARK  232  A    between atoms: _602  and  _603
REMARK  233  A    between atoms: _609  and  _611
REMARK  234  A    between atoms: _611  and  _612
REMARK  235  A    between atoms: _615  and  _617
REMARK  236  A    between atoms: _617  and  _618
REMARK  237  A    between atoms: _617  and  _620
REMARK  238  A    between atoms: _620  and  _621
REMARK  239  A    between atoms: _621  and  _622
REMARK  240  A    between atoms: _624  and  _626
REMARK  241  A    between atoms: _626  and  _627
REMARK  242  A    between atoms: _626  and  _629
REMARK  243  A    between atoms: _629  and  _630
REMARK  244  A    between atoms: _630  and  _631
REMARK  245  A    between atoms: _631  and  _632
REMARK  246  A    between atoms: _632  and  _633
REMARK  247  A    between atoms: _637  and  _639
REMARK  248  A    between atoms: _639  and  _640
REMARK  249  A    between atoms: _639  and  _642
REMARK  250  A    between atoms: _642  and  _643
REMARK  251  A    between atoms: _648  and  _649
REMARK  252  A    between atoms: _651  and  _653
REMARK  253  A    between atoms: _653  and  _654
REMARK  254  A    between atoms: _653  and  _656
REMARK  255  A    between atoms: _656  and  _657
REMARK  256  A    between atoms: _662  and  _664
REMARK  257  A    between atoms: _664  and  _665
REMARK  258  A    between atoms: _664  and  _667
REMARK  259  A    between atoms: _667  and  _668
REMARK  260  A    between atoms: _671  and  _673
REMARK  261  A    between atoms: _673  and  _674
REMARK  262  A    between atoms: _677  and  _679
REMARK  263  A    between atoms: _679  and  _680
REMARK  264  A    between atoms: _679  and  _682
REMARK  265  A    between atoms: _682  and  _683
REMARK  266  A    between atoms: _686  and  _688
REMARK  267  A    between atoms: _688  and  _689
REMARK  268  A    between atoms: _688  and  _691
REMARK  269  A    between atoms: _694  and  _696
REMARK  270  A    between atoms: _696  and  _697
REMARK  271  A    between atoms: _696  and  _699
REMARK  272  A    between atoms: _699  and  _700
REMARK  273  A    between atoms: _700  and  _701
REMARK  274  A    between atoms: _704  and  _706
REMARK  275  A    between atoms: _706  and  _707
REMARK  276  A    between atoms: _706  and  _709
REMARK  277  A    between atoms: _709  and  _710
REMARK  278  A    between atoms: _715  and  _716
REMARK  279  A    between atoms: _718  and  _720
REMARK  280  A    between atoms: _720  and  _721
REMARK  281  A    between atoms: _720  and  _723
REMARK  282  A    between atoms: _723  and  _724
REMARK  283  A    between atoms: _724  and  _725
REMARK  284  A    between atoms: _725  and  _726
REMARK  285  A    between atoms: _735  and  _737
REMARK  286  A    between atoms: _737  and  _738
REMARK  287  A    between atoms: _737  and  _740
REMARK  288  A    between atoms: _740  and  _741
REMARK  289  A    between atoms: _746  and  _747
REMARK  290  A    between atoms: _749  and  _751
REMARK  291  A    between atoms: _751  and  _752
REMARK  292  A    between atoms: _751  and  _754
REMARK  293  A    between atoms: _754  and  _755
REMARK  294  A    between atoms: _758  and  _760
REMARK  295  A    between atoms: _760  and  _761
REMARK  296  A    between atoms: _760  and  _763
REMARK  297  A    between atoms: _763  and  _764
REMARK  298  A    between atoms: _766  and  _768
REMARK  299  A    between atoms: _768  and  _769
REMARK  300  A    between atoms: _768  and  _771
REMARK  301  A    between atoms: _771  and  _772
REMARK  302  A    between atoms: _778  and  _780
REMARK  303  A    between atoms: _780  and  _781
REMARK  304  A    between atoms: _780  and  _783
REMARK  305  A    between atoms: _783  and  _784
REMARK  306  A    between atoms: _784  and  _785
REMARK                            x       y       z     vdW  Elec       q    Type
REMARK                         _______ _______ _______ _____ _____    ______ ____
ROOT
ATOM      1  O   HOH     1      24.380   9.964   4.015  0.00  0.00    +0.000 OA
ENDROOT
TORSDOF 0
REMARK  Name = ../refined-set-2016/4ca7/4ca7_pocket.pdb
REMARK  306 active torsions:
REMARK  status: ('A' for Active; 'I' for Inactive)
REMARK    1  A    between atoms: _1  and  _3
REMARK    2  A    between atoms: _3  and  _4
REMARK    3  A    between atoms: _3  and  _6
REMARK    4  A    between atoms: _6  and  _7
REMARK    5  A    between atoms: _7  and  _8
REMARK    6  A    between atoms: _8  and  _9
REMARK    7  A    between atoms: _9  and  _10
REMARK    8  A    between atoms: _14  and  _16
REMARK    9  A    between atoms: _16  and  _17
REMARK   10  A    between atoms: _16  and  _19
REMARK   11  A    between atoms: _19  and  _20
REMARK   12  A    between atoms: _20  and  _21
REMARK   13  A    between atoms: _24  and  _26
REMARK   14  A    between atoms: _26  and  _27
REMARK   15  A    between atoms: _26  and  _29
REMARK   16  A    between atoms: _29  and  _30
REMARK   17  A    between atoms: _30  and  _31
REMARK   18  A    between atoms: _34  and  _36
REMARK   19  A    between atoms: _36  and  _37
REMARK   20  A    between atoms: _36  and  _39
REMARK   21  A    between atoms: _39  and  _40
REMARK   22  A    between atoms: _45  and  _47
REMARK   23  A    between atoms: _47  and  _48
REMARK   24  A    between atoms: _47  and  _50
REMARK   25  A    between atoms: _50  and  _51
REMARK   26  A    between atoms: _61  and  _63
REMARK   27  A    between atoms: _63  and  _64
REMARK   28  A    between atoms: _63  and  _66
REMARK   29  A    between atoms: _66  and  _67
REMARK   30  A    between atoms: _67  and  _68
REMARK   31  A    between atoms: _73  and  _75
REMARK   32  A    between atoms: _75  and  _76
REMARK   33  A    between atoms: _75  and  _78
REMARK   34  A    between atoms: _78  and  _79
REMARK   35  A    between atoms: _79  and  _80
REMARK   36  A    between atoms: _85  and  _87
REMARK   37  A    between atoms: _87  and  _88
REMARK   38  A    between atoms: _87  and  _90
REMARK   39  A    between atoms: _90  and  _91
REMARK   40  A    between atoms: _93  and  _95
REMARK   41  A    between atoms: _95  and  _96
REMARK   42  A    between atoms: _95  and  _98
REMARK   43  A    between atoms: _101  and  _103
REMARK   44  A    between atoms: _103  and  _104
REMARK   45  A    between atoms: _103  and  _106
REMARK   46  A    between atoms: _108  and  _110
REMARK   47  A    between atoms: _110  and  _111
REMARK   48  A    between atoms: _110  and  _113
REMARK   49  A    between atoms: _113  and  _114
REMARK   50  A    between atoms: _119  and  _121
REMARK   51  A    between atoms: _121  and  _122
REMARK   52  A    between atoms: _125  and  _127
REMARK   53  A    between atoms: _127  and  _128
REMARK   54  A    between atoms: _127  and  _130
REMARK   55  A    between atoms: _130  and  _131
REMARK   56  A    between atoms: _133  and  _135
REMARK   57  A    between atoms: _135  and  _136
REMARK   58  A    between atoms: _139  and  _141
REMARK   59  A    between atoms: _141  and  _142
REMARK   60  A    between atoms: _141  and  _144
REMARK   61  A    between atoms: _144  and  _145
REMARK   62  A    between atoms: _155  and  _157
REMARK   63  A    between atoms: _157  and  _158
REMARK   64  A    between atoms: _157  and  _160
REMARK   65  A    between atoms: _160  and  _161
REMARK   66  A    between atoms: _164  and  _166
REMARK   67  A    between atoms: _166  and  _167
REMARK   68  A    between atoms: _166  and  _169
REMARK   69  A    between atoms: _169  and  _170
REMARK   70  A    between atoms: _175  and  _176
REMARK   71  A    between atoms: _178  and  _180
REMARK   72  A    between atoms: _180  and  _181
REMARK   73  A    between atoms: _180  and  _183
REMARK   74  A    between atoms: _183  and  _184
REMARK   75  A    between atoms: _184  and  _185
REMARK   76  A    between atoms: _185  and  _186
REMARK   77  A    between atoms: _195  and  _197
REMARK   78  A    between atoms: _197  and  _198
REMARK   79  A    between atoms: _197  and  _200
REMARK   80  A    between atoms: _200  and  _201
REMARK   81  A    between atoms: _204  and  _206
REMARK   82  A    between atoms: _206  and  _207
REMARK   83  A    between atoms: _206  and  _209
REMARK   84  A    between atoms: _209  and  _210
REMARK   85  A    between atoms: _210  and  _211
REMARK   86  A    between atoms: _211  and  _212
REMARK   87  A    between atoms: _212  and  _213
REMARK   88  A    between atoms: _217  and  _219
REMARK   89  A    between atoms: _219  and  _220
REMARK   90  A    between atoms: _219  and  _222
REMARK   91  A    between atoms: _222  and  _223
REMARK   92  A    between atoms: _223  and  _224
REMARK   93  A    between atoms: _229  and  _231
REMARK   94  A    between atoms: _231  and  _232
REMARK   95  A    between atoms: _231  and  _234
REMARK   96  A    between atoms: _234  and  _235
REMARK   97  A    between atoms: _235  and  _236
REMARK   98  A    between atoms: _236  and  _237
REMARK   99  A    between atoms: _246  and  _248
REMARK  100  A    between atoms: _248  and  _249
REMARK  101  A    between atoms: _248  and  _251
REMARK  102  A    between atoms: _251  and  _252
REMARK  103  A    between atoms: _252  and  _253
REMARK  104  A    between atoms: _258  and  _260
REMARK  105  A    between atoms: _260  and  _261
REMARK  106  A    between atoms: _260  and  _263
REMARK  107  A    between atoms: _263  and  _264
REMARK  108  A    between atoms: _267  and  _269
REMARK  109  A    between atoms: _269  and  _270
REMARK  110  A    between atoms: _269  and  _272
REMARK  111  A    between atoms: _272  and  _273
REMARK  112  A    between atoms: _273  and  _274
REMARK  113  A    between atoms: _279  and  _281
REMARK  114  A    between atoms: _281  and  _282
REMARK  115  A    between atoms: _281  and  _284
REMARK  116  A    between atoms: _284  and  _285
REMARK  117  A    between atoms: _288  and  _290
REMARK  118  A    between atoms: _290  and  _291
REMARK  119  A    between atoms: _290  and  _293
REMARK  120  A    between atoms: _293  and  _294
REMARK  121  A    between atoms: _300  and  _302
REMARK  122  A    between atoms: _302  and  _303
REMARK  123  A    between atoms: _302  and  _305
REMARK  124  A    between atoms: _305  and  _306
REMARK  125  A    between atoms: _309  and  _311
REMARK  126  A    between atoms: _311  and  _312
REMARK  127  A    between atoms: _311  and  _314
REMARK  128  A    between atoms: _317  and  _319
REMARK  129  A    between atoms: _319  and  _320
REMARK  130  A    between atoms: _319  and  _322
REMARK  131  A    between atoms: _322  and  _323
REMARK  132  A    between atoms: _328  and  _330
REMARK  133  A    between atoms: _341  and  _344
REMARK  134  A    between atoms: _344  and  _345
REMARK  135  A    between atoms: _345  and  _346
REMARK  136  A    between atoms: _351  and  _354
REMARK  137  A    between atoms: _354  and  _355
REMARK  138  A    between atoms: _365  and  _366
REMARK  139  A    between atoms: _374  and  _376
REMARK  140  A    between atoms: _376  and  _377
REMARK  141  A    between atoms: _376  and  _379
REMARK  142  A    between atoms: _379  and  _380
REMARK  143  A    between atoms: _383  and  _385
REMARK  144  A    between atoms: _385  and  _386
REMARK  145  A    between atoms: _385  and  _388
REMARK  146  A    between atoms: _388  and  _389
REMARK  147  A    between atoms: _394  and  _395
REMARK  148  A    between atoms: _397  and  _399
REMARK  149  A    between atoms: _399  and  _400
REMARK  150  A    between atoms: _399  and  _402
REMARK  151  A    between atoms: _402  and  _403
REMARK  152  A    between atoms: _409  and  _411
REMARK  153  A    between atoms: _411  and  _412
REMARK  154  A    between atoms: _411  and  _414
REMARK  155  A    between atoms: _414  and  _415
REMARK  156  A    between atoms: _420  and  _421
REMARK  157  A    between atoms: _423  and  _425
REMARK  158  A    between atoms: _425  and  _426
REMARK  159  A    between atoms: _425  and  _428
REMARK  160  A    between atoms: _428  and  _429
REMARK  161  A    between atoms: _429  and  _430
REMARK  162  A    between atoms: _430  and  _431
REMARK  163  A    between atoms: _440  and  _442
REMARK  164  A    between atoms: _442  and  _443
REMARK  165  A    between atoms: _442  and  _445
REMARK  166  A    between atoms: _445  and  _446
REMARK  167  A    between atoms: _449  and  _451
REMARK  168  A    between atoms: _451  and  _452
REMARK  169  A    between atoms: _454  and  _456
REMARK  170  A    between atoms: _456  and  _457
REMARK  171  A    between atoms: _456  and  _459
REMARK  172  A    between atoms: _459  and  _460
REMARK  173  A    between atoms: _466  and  _467
REMARK  174  A    between atoms: _472  and  _474
REMARK  175  A    between atoms: _474  and  _475
REMARK  176  A    between atoms: _477  and  _479
REMARK  177  A    between atoms: _479  and  _480
REMARK  178  A    between atoms: _479  and  _482
REMARK  179  A    between atoms: _482  and  _483
REMARK  180  A    between atoms: _489  and  _491
REMARK  181  A    between atoms: _491  and  _492
REMARK  182  A    between atoms: _491  and  _494
REMARK  183  A    between atoms: _494  and  _495
REMARK  184  A    between atoms: _500  and  _502
REMARK  185  A    between atoms: _502  and  _503
REMARK  186  A    between atoms: _502  and  _505
REMARK  187  A    between atoms: _505  and  _506
REMARK  188  A    between atoms: _506  and  _507
REMARK  189  A    between atoms: _507  and  _508
REMARK  190  A    between atoms: _508  and  ZN_790
REMARK  191  A    between atoms: _510  and  _512
REMARK  192  A    between atoms: _512  and  _513
REMARK  193  A    between atoms: _516  and  _518
REMARK  194  A    between atoms: _518  and  _519
REMARK  195  A    between atoms: _521  and  _523
REMARK  196  A    between atoms: _523  and  _524
REMARK  197  A    between atoms: _523  and  _526
REMARK  198  A    between atoms: _526  and  _527
REMARK  199  A    between atoms: _530  and  _532
REMARK  200  A    between atoms: _532  and  _533
REMARK  201  A    between atoms: _532  and  _535
REMARK  202  A    between atoms: _538  and  _540
REMARK  203  A    between atoms: _540  and  _541
REMARK  204  A    between atoms: _540  and  _543
REMARK  205  A    between atoms: _543  and  _544
REMARK  206  A    between atoms: _546  and  _548
REMARK  207  A    between atoms: _548  and  _549
REMARK  208  A    between atoms: _548  and  _551
REMARK  209  A    between atoms: _551  and  _552
REMARK  210  A    between atoms: _555  and  _557
REMARK  211  A    between atoms: _557  and  _558
REMARK  212  A    between atoms: _557  and  _560
REMARK  213  A    between atoms: _560  and  _561
REMARK  214  A    between atoms: _563  and  _565
REMARK  215  A    between atoms: _565  and  _566
REMARK  216  A    between atoms: _565  and  _568
REMARK  217  A    between atoms: _568  and  _569
REMARK  218  A    between atoms: _572  and  _574
REMARK  219  A    between atoms: _574  and  _575
REMARK  220  A    between atoms: _574  and  _577
REMARK  221  A    between atoms: _577  and  _578
REMARK  222  A    between atoms: _578  and  _579
REMARK  223  A    between atoms: _579  and  _580
REMARK  224  A    between atoms: _580  and  _581
REMARK  225  A    between atoms: _585  and  _587
REMARK  226  A    between atoms: _587  and  _588
REMARK  227  A    between atoms: _587  and  _590
REMARK  228  A    between atoms: _590  and  _591
REMARK  229  A    between atoms: _597  and  _599
REMARK  230  A    between atoms: _599  and  _600
REMARK  231  A    between atoms: _599  and  _602
REMARK  232  A    between atoms: _602  and  _603
REMARK  233  A    between atoms: _609  and  _611
REMARK  234  A    between atoms: _611  and  _612
REMARK  235  A    between atoms: _615  and  _617
REMARK  236  A    between atoms: _617  and  _618
REMARK  237  A    between atoms: _617  and  _620
REMARK  238  A    between atoms: _620  and  _621
REMARK  239  A    between atoms: _621  and  _622
REMARK  240  A    between atoms: _624  and  _626
REMARK  241  A    between atoms: _626  and  _627
REMARK  242  A    between atoms: _626  and  _629
REMARK  243  A    between atoms: _629  and  _630
REMARK  244  A    between atoms: _630  and  _631
REMARK  245  A    between atoms: _631  and  _632
REMARK  246  A    between atoms: _632  and  _633
REMARK  247  A    between atoms: _637  and  _639
REMARK  248  A    between atoms: _639  and  _640
REMARK  249  A    between atoms: _639  and  _642
REMARK  250  A    between atoms: _642  and  _643
REMARK  251  A    between atoms: _648  and  _649
REMARK  252  A    between atoms: _651  and  _653
REMARK  253  A    between atoms: _653  and  _654
REMARK  254  A    between atoms: _653  and  _656
REMARK  255  A    between atoms: _656  and  _657
REMARK  256  A    between atoms: _662  and  _664
REMARK  257  A    between atoms: _664  and  _665
REMARK  258  A    between atoms: _664  and  _667
REMARK  259  A    between atoms: _667  and  _668
REMARK  260  A    between atoms: _671  and  _673
REMARK  261  A    between atoms: _673  and  _674
REMARK  262  A    between atoms: _677  and  _679
REMARK  263  A    between atoms: _679  and  _680
REMARK  264  A    between atoms: _679  and  _682
REMARK  265  A    between atoms: _682  and  _683
REMARK  266  A    between atoms: _686  and  _688
REMARK  267  A    between atoms: _688  and  _689
REMARK  268  A    between atoms: _688  and  _691
REMARK  269  A    between atoms: _694  and  _696
REMARK  270  A    between atoms: _696  and  _697
REMARK  271  A    between atoms: _696  and  _699
REMARK  272  A    between atoms: _699  and  _700
REMARK  273  A    between atoms: _700  and  _701
REMARK  274  A    between atoms: _704  and  _706
REMARK  275  A    between atoms: _706  and  _707
REMARK  276  A    between atoms: _706  and  _709
REMARK  277  A    between atoms: _709  and  _710
REMARK  278  A    between atoms: _715  and  _716
REMARK  279  A    between atoms: _718  and  _720
REMARK  280  A    between atoms: _720  and  _721
REMARK  281  A    between atoms: _720  and  _723
REMARK  282  A    between atoms: _723  and  _724
REMARK  283  A    between atoms: _724  and  _725
REMARK  284  A    between atoms: _725  and  _726
REMARK  285  A    between atoms: _735  and  _737
REMARK  286  A    between atoms: _737  and  _738
REMARK  287  A    between atoms: _737  and  _740
REMARK  288  A    between atoms: _740  and  _741
REMARK  289  A    between atoms: _746  and  _747
REMARK  290  A    between atoms: _749  and  _751
REMARK  291  A    between atoms: _751  and  _752
REMARK  292  A    between atoms: _751  and  _754
REMARK  293  A    between atoms: _754  and  _755
REMARK  294  A    between atoms: _758  and  _760
REMARK  295  A    between atoms: _760  and  _761
REMARK  296  A    between atoms: _760  and  _763
REMARK  297  A    between atoms: _763  and  _764
REMARK  298  A    between atoms: _766  and  _768
REMARK  299  A    between atoms: _768  and  _769
REMARK  300  A    between atoms: _768  and  _771
REMARK  301  A    between atoms: _771  and  _772
REMARK  302  A    between atoms: _778  and  _780
REMARK  303  A    between atoms: _780  and  _781
REMARK  304  A    between atoms: _780  and  _783
REMARK  305  A    between atoms: _783  and  _784
REMARK  306  A    between atoms: _784  and  _785
REMARK                            x       y       z     vdW  Elec       q    Type
REMARK                         _______ _______ _______ _____ _____    ______ ____
ROOT
ATOM      1  O   HOH     1      32.346  10.511  12.623  0.00  0.00    +0.000 OA
ENDROOT
TORSDOF 0
REMARK  Name = ../refined-set-2016/4ca7/4ca7_pocket.pdb
REMARK  306 active torsions:
REMARK  status: ('A' for Active; 'I' for Inactive)
REMARK    1  A    between atoms: _1  and  _3
REMARK    2  A    between atoms: _3  and  _4
REMARK    3  A    between atoms: _3  and  _6
REMARK    4  A    between atoms: _6  and  _7
REMARK    5  A    between atoms: _7  and  _8
REMARK    6  A    between atoms: _8  and  _9
REMARK    7  A    between atoms: _9  and  _10
REMARK    8  A    between atoms: _14  and  _16
REMARK    9  A    between atoms: _16  and  _17
REMARK   10  A    between atoms: _16  and  _19
REMARK   11  A    between atoms: _19  and  _20
REMARK   12  A    between atoms: _20  and  _21
REMARK   13  A    between atoms: _24  and  _26
REMARK   14  A    between atoms: _26  and  _27
REMARK   15  A    between atoms: _26  and  _29
REMARK   16  A    between atoms: _29  and  _30
REMARK   17  A    between atoms: _30  and  _31
REMARK   18  A    between atoms: _34  and  _36
REMARK   19  A    between atoms: _36  and  _37
REMARK   20  A    between atoms: _36  and  _39
REMARK   21  A    between atoms: _39  and  _40
REMARK   22  A    between atoms: _45  and  _47
REMARK   23  A    between atoms: _47  and  _48
REMARK   24  A    between atoms: _47  and  _50
REMARK   25  A    between atoms: _50  and  _51
REMARK   26  A    between atoms: _61  and  _63
REMARK   27  A    between atoms: _63  and  _64
REMARK   28  A    between atoms: _63  and  _66
REMARK   29  A    between atoms: _66  and  _67
REMARK   30  A    between atoms: _67  and  _68
REMARK   31  A    between atoms: _73  and  _75
REMARK   32  A    between atoms: _75  and  _76
REMARK   33  A    between atoms: _75  and  _78
REMARK   34  A    between atoms: _78  and  _79
REMARK   35  A    between atoms: _79  and  _80
REMARK   36  A    between atoms: _85  and  _87
REMARK   37  A    between atoms: _87  and  _88
REMARK   38  A    between atoms: _87  and  _90
REMARK   39  A    between atoms: _90  and  _91
REMARK   40  A    between atoms: _93  and  _95
REMARK   41  A    between atoms: _95  and  _96
REMARK   42  A    between atoms: _95  and  _98
REMARK   43  A    between atoms: _101  and  _103
REMARK   44  A    between atoms: _103  and  _104
REMARK   45  A    between atoms: _103  and  _106
REMARK   46  A    between atoms: _108  and  _110
REMARK   47  A    between atoms: _110  and  _111
REMARK   48  A    between atoms: _110  and  _113
REMARK   49  A    between atoms: _113  and  _114
REMARK   50  A    between atoms: _119  and  _121
REMARK   51  A    between atoms: _121  and  _122
REMARK   52  A    between atoms: _125  and  _127
REMARK   53  A    between atoms: _127  and  _128
REMARK   54  A    between atoms: _127  and  _130
REMARK   55  A    between atoms: _130  and  _131
REMARK   56  A    between atoms: _133  and  _135
REMARK   57  A    between atoms: _135  and  _136
REMARK   58  A    between atoms: _139  and  _141
REMARK   59  A    between atoms: _141  and  _142
REMARK   60  A    between atoms: _141  and  _144
REMARK   61  A    between atoms: _144  and  _145
REMARK   62  A    between atoms: _155  and  _157
REMARK   63  A    between atoms: _157  and  _158
REMARK   64  A    between atoms: _157  and  _160
REMARK   65  A    between atoms: _160  and  _161
REMARK   66  A    between atoms: _164  and  _166
REMARK   67  A    between atoms: _166  and  _167
REMARK   68  A    between atoms: _166  and  _169
REMARK   69  A    between atoms: _169  and  _170
REMARK   70  A    between atoms: _175  and  _176
REMARK   71  A    between atoms: _178  and  _180
REMARK   72  A    between atoms: _180  and  _181
REMARK   73  A    between atoms: _180  and  _183
REMARK   74  A    between atoms: _183  and  _184
REMARK   75  A    between atoms: _184  and  _185
REMARK   76  A    between atoms: _185  and  _186
REMARK   77  A    between atoms: _195  and  _197
REMARK   78  A    between atoms: _197  and  _198
REMARK   79  A    between atoms: _197  and  _200
REMARK   80  A    between atoms: _200  and  _201
REMARK   81  A    between atoms: _204  and  _206
REMARK   82  A    between atoms: _206  and  _207
REMARK   83  A    between atoms: _206  and  _209
REMARK   84  A    between atoms: _209  and  _210
REMARK   85  A    between atoms: _210  and  _211
REMARK   86  A    between atoms: _211  and  _212
REMARK   87  A    between atoms: _212  and  _213
REMARK   88  A    between atoms: _217  and  _219
REMARK   89  A    between atoms: _219  and  _220
REMARK   90  A    between atoms: _219  and  _222
REMARK   91  A    between atoms: _222  and  _223
REMARK   92  A    between atoms: _223  and  _224
REMARK   93  A    between atoms: _229  and  _231
REMARK   94  A    between atoms: _231  and  _232
REMARK   95  A    between atoms: _231  and  _234
REMARK   96  A    between atoms: _234  and  _235
REMARK   97  A    between atoms: _235  and  _236
REMARK   98  A    between atoms: _236  and  _237
REMARK   99  A    between atoms: _246  and  _248
REMARK  100  A    between atoms: _248  and  _249
REMARK  101  A    between atoms: _248  and  _251
REMARK  102  A    between atoms: _251  and  _252
REMARK  103  A    between atoms: _252  and  _253
REMARK  104  A    between atoms: _258  and  _260
REMARK  105  A    between atoms: _260  and  _261
REMARK  106  A    between atoms: _260  and  _263
REMARK  107  A    between atoms: _263  and  _264
REMARK  108  A    between atoms: _267  and  _269
REMARK  109  A    between atoms: _269  and  _270
REMARK  110  A    between atoms: _269  and  _272
REMARK  111  A    between atoms: _272  and  _273
REMARK  112  A    between atoms: _273  and  _274
REMARK  113  A    between atoms: _279  and  _281
REMARK  114  A    between atoms: _281  and  _282
REMARK  115  A    between atoms: _281  and  _284
REMARK  116  A    between atoms: _284  and  _285
REMARK  117  A    between atoms: _288  and  _290
REMARK  118  A    between atoms: _290  and  _291
REMARK  119  A    between atoms: _290  and  _293
REMARK  120  A    between atoms: _293  and  _294
REMARK  121  A    between atoms: _300  and  _302
REMARK  122  A    between atoms: _302  and  _303
REMARK  123  A    between atoms: _302  and  _305
REMARK  124  A    between atoms: _305  and  _306
REMARK  125  A    between atoms: _309  and  _311
REMARK  126  A    between atoms: _311  and  _312
REMARK  127  A    between atoms: _311  and  _314
REMARK  128  A    between atoms: _317  and  _319
REMARK  129  A    between atoms: _319  and  _320
REMARK  130  A    between atoms: _319  and  _322
REMARK  131  A    between atoms: _322  and  _323
REMARK  132  A    between atoms: _328  and  _330
REMARK  133  A    between atoms: _341  and  _344
REMARK  134  A    between atoms: _344  and  _345
REMARK  135  A    between atoms: _345  and  _346
REMARK  136  A    between atoms: _351  and  _354
REMARK  137  A    between atoms: _354  and  _355
REMARK  138  A    between atoms: _365  and  _366
REMARK  139  A    between atoms: _374  and  _376
REMARK  140  A    between atoms: _376  and  _377
REMARK  141  A    between atoms: _376  and  _379
REMARK  142  A    between atoms: _379  and  _380
REMARK  143  A    between atoms: _383  and  _385
REMARK  144  A    between atoms: _385  and  _386
REMARK  145  A    between atoms: _385  and  _388
REMARK  146  A    between atoms: _388  and  _389
REMARK  147  A    between atoms: _394  and  _395
REMARK  148  A    between atoms: _397  and  _399
REMARK  149  A    between atoms: _399  and  _400
REMARK  150  A    between atoms: _399  and  _402
REMARK  151  A    between atoms: _402  and  _403
REMARK  152  A    between atoms: _409  and  _411
REMARK  153  A    between atoms: _411  and  _412
REMARK  154  A    between atoms: _411  and  _414
REMARK  155  A    between atoms: _414  and  _415
REMARK  156  A    between atoms: _420  and  _421
REMARK  157  A    between atoms: _423  and  _425
REMARK  158  A    between atoms: _425  and  _426
REMARK  159  A    between atoms: _425  and  _428
REMARK  160  A    between atoms: _428  and  _429
REMARK  161  A    between atoms: _429  and  _430
REMARK  162  A    between atoms: _430  and  _431
REMARK  163  A    between atoms: _440  and  _442
REMARK  164  A    between atoms: _442  and  _443
REMARK  165  A    between atoms: _442  and  _445
REMARK  166  A    between atoms: _445  and  _446
REMARK  167  A    between atoms: _449  and  _451
REMARK  168  A    between atoms: _451  and  _452
REMARK  169  A    between atoms: _454  and  _456
REMARK  170  A    between atoms: _456  and  _457
REMARK  171  A    between atoms: _456  and  _459
REMARK  172  A    between atoms: _459  and  _460
REMARK  173  A    between atoms: _466  and  _467
REMARK  174  A    between atoms: _472  and  _474
REMARK  175  A    between atoms: _474  and  _475
REMARK  176  A    between atoms: _477  and  _479
REMARK  177  A    between atoms: _479  and  _480
REMARK  178  A    between atoms: _479  and  _482
REMARK  179  A    between atoms: _482  and  _483
REMARK  180  A    between atoms: _489  and  _491
REMARK  181  A    between atoms: _491  and  _492
REMARK  182  A    between atoms: _491  and  _494
REMARK  183  A    between atoms: _494  and  _495
REMARK  184  A    between atoms: _500  and  _502
REMARK  185  A    between atoms: _502  and  _503
REMARK  186  A    between atoms: _502  and  _505
REMARK  187  A    between atoms: _505  and  _506
REMARK  188  A    between atoms: _506  and  _507
REMARK  189  A    between atoms: _507  and  _508
REMARK  190  A    between atoms: _508  and  ZN_790
REMARK  191  A    between atoms: _510  and  _512
REMARK  192  A    between atoms: _512  and  _513
REMARK  193  A    between atoms: _516  and  _518
REMARK  194  A    between atoms: _518  and  _519
REMARK  195  A    between atoms: _521  and  _523
REMARK  196  A    between atoms: _523  and  _524
REMARK  197  A    between atoms: _523  and  _526
REMARK  198  A    between atoms: _526  and  _527
REMARK  199  A    between atoms: _530  and  _532
REMARK  200  A    between atoms: _532  and  _533
REMARK  201  A    between atoms: _532  and  _535
REMARK  202  A    between atoms: _538  and  _540
REMARK  203  A    between atoms: _540  and  _541
REMARK  204  A    between atoms: _540  and  _543
REMARK  205  A    between atoms: _543  and  _544
REMARK  206  A    between atoms: _546  and  _548
REMARK  207  A    between atoms: _548  and  _549
REMARK  208  A    between atoms: _548  and  _551
REMARK  209  A    between atoms: _551  and  _552
REMARK  210  A    between atoms: _555  and  _557
REMARK  211  A    between atoms: _557  and  _558
REMARK  212  A    between atoms: _557  and  _560
REMARK  213  A    between atoms: _560  and  _561
REMARK  214  A    between atoms: _563  and  _565
REMARK  215  A    between atoms: _565  and  _566
REMARK  216  A    between atoms: _565  and  _568
REMARK  217  A    between atoms: _568  and  _569
REMARK  218  A    between atoms: _572  and  _574
REMARK  219  A    between atoms: _574  and  _575
REMARK  220  A    between atoms: _574  and  _577
REMARK  221  A    between atoms: _577  and  _578
REMARK  222  A    between atoms: _578  and  _579
REMARK  223  A    between atoms: _579  and  _580
REMARK  224  A    between atoms: _580  and  _581
REMARK  225  A    between atoms: _585  and  _587
REMARK  226  A    between atoms: _587  and  _588
REMARK  227  A    between atoms: _587  and  _590
REMARK  228  A    between atoms: _590  and  _591
REMARK  229  A    between atoms: _597  and  _599
REMARK  230  A    between atoms: _599  and  _600
REMARK  231  A    between atoms: _599  and  _602
REMARK  232  A    between atoms: _602  and  _603
REMARK  233  A    between atoms: _609  and  _611
REMARK  234  A    between atoms: _611  and  _612
REMARK  235  A    between atoms: _615  and  _617
REMARK  236  A    between atoms: _617  and  _618
REMARK  237  A    between atoms: _617  and  _620
REMARK  238  A    between atoms: _620  and  _621
REMARK  239  A    between atoms: _621  and  _622
REMARK  240  A    between atoms: _624  and  _626
REMARK  241  A    between atoms: _626  and  _627
REMARK  242  A    between atoms: _626  and  _629
REMARK  243  A    between atoms: _629  and  _630
REMARK  244  A    between atoms: _630  and  _631
REMARK  245  A    between atoms: _631  and  _632
REMARK  246  A    between atoms: _632  and  _633
REMARK  247  A    between atoms: _637  and  _639
REMARK  248  A    between atoms: _639  and  _640
REMARK  249  A    between atoms: _639  and  _642
REMARK  250  A    between atoms: _642  and  _643
REMARK  251  A    between atoms: _648  and  _649
REMARK  252  A    between atoms: _651  and  _653
REMARK  253  A    between atoms: _653  and  _654
REMARK  254  A    between atoms: _653  and  _656
REMARK  255  A    between atoms: _656  and  _657
REMARK  256  A    between atoms: _662  and  _664
REMARK  257  A    between atoms: _664  and  _665
REMARK  258  A    between atoms: _664  and  _667
REMARK  259  A    between atoms: _667  and  _668
REMARK  260  A    between atoms: _671  and  _673
REMARK  261  A    between atoms: _673  and  _674
REMARK  262  A    between atoms: _677  and  _679
REMARK  263  A    between atoms: _679  and  _680
REMARK  264  A    between atoms: _679  and  _682
REMARK  265  A    between atoms: _682  and  _683
REMARK  266  A    between atoms: _686  and  _688
REMARK  267  A    between atoms: _688  and  _689
REMARK  268  A    between atoms: _688  and  _691
REMARK  269  A    between atoms: _694  and  _696
REMARK  270  A    between atoms: _696  and  _697
REMARK  271  A    between atoms: _696  and  _699
REMARK  272  A    between atoms: _699  and  _700
REMARK  273  A    between atoms: _700  and  _701
REMARK  274  A    between atoms: _704  and  _706
REMARK  275  A    between atoms: _706  and  _707
REMARK  276  A    between atoms: _706  and  _709
REMARK  277  A    between atoms: _709  and  _710
REMARK  278  A    between atoms: _715  and  _716
REMARK  279  A    between atoms: _718  and  _720
REMARK  280  A    between atoms: _720  and  _721
REMARK  281  A    between atoms: _720  and  _723
REMARK  282  A    between atoms: _723  and  _724
REMARK  283  A    between atoms: _724  and  _725
REMARK  284  A    between atoms: _725  and  _726
REMARK  285  A    between atoms: _735  and  _737
REMARK  286  A    between atoms: _737  and  _738
REMARK  287  A    between atoms: _737  and  _740
REMARK  288  A    between atoms: _740  and  _741
REMARK  289  A    between atoms: _746  and  _747
REMARK  290  A    between atoms: _749  and  _751
REMARK  291  A    between atoms: _751  and  _752
REMARK  292  A    between atoms: _751  and  _754
REMARK  293  A    between atoms: _754  and  _755
REMARK  294  A    between atoms: _758  and  _760
REMARK  295  A    between atoms: _760  and  _761
REMARK  296  A    between atoms: _760  and  _763
REMARK  297  A    between atoms: _763  and  _764
REMARK  298  A    between atoms: _766  and  _768
REMARK  299  A    between atoms: _768  and  _769
REMARK  300  A    between atoms: _768  and  _771
REMARK  301  A    between atoms: _771  and  _772
REMARK  302  A    between atoms: _778  and  _780
REMARK  303  A    between atoms: _780  and  _781
REMARK  304  A    between atoms: _780  and  _783
REMARK  305  A    between atoms: _783  and  _784
REMARK  306  A    between atoms: _784  and  _785
REMARK                            x       y       z     vdW  Elec       q    Type
REMARK                         _______ _______ _______ _____ _____    ______ ____
ROOT
ATOM      1  O   HOH     1      30.639  11.063   7.154  0.00  0.00    +0.000 OA
ENDROOT
TORSDOF 0
REMARK  Name = ../refined-set-2016/4ca7/4ca7_pocket.pdb
REMARK  306 active torsions:
REMARK  status: ('A' for Active; 'I' for Inactive)
REMARK    1  A    between atoms: _1  and  _3
REMARK    2  A    between atoms: _3  and  _4
REMARK    3  A    between atoms: _3  and  _6
REMARK    4  A    between atoms: _6  and  _7
REMARK    5  A    between atoms: _7  and  _8
REMARK    6  A    between atoms: _8  and  _9
REMARK    7  A    between atoms: _9  and  _10
REMARK    8  A    between atoms: _14  and  _16
REMARK    9  A    between atoms: _16  and  _17
REMARK   10  A    between atoms: _16  and  _19
REMARK   11  A    between atoms: _19  and  _20
REMARK   12  A    between atoms: _20  and  _21
REMARK   13  A    between atoms: _24  and  _26
REMARK   14  A    between atoms: _26  and  _27
REMARK   15  A    between atoms: _26  and  _29
REMARK   16  A    between atoms: _29  and  _30
REMARK   17  A    between atoms: _30  and  _31
REMARK   18  A    between atoms: _34  and  _36
REMARK   19  A    between atoms: _36  and  _37
REMARK   20  A    between atoms: _36  and  _39
REMARK   21  A    between atoms: _39  and  _40
REMARK   22  A    between atoms: _45  and  _47
REMARK   23  A    between atoms: _47  and  _48
REMARK   24  A    between atoms: _47  and  _50
REMARK   25  A    between atoms: _50  and  _51
REMARK   26  A    between atoms: _61  and  _63
REMARK   27  A    between atoms: _63  and  _64
REMARK   28  A    between atoms: _63  and  _66
REMARK   29  A    between atoms: _66  and  _67
REMARK   30  A    between atoms: _67  and  _68
REMARK   31  A    between atoms: _73  and  _75
REMARK   32  A    between atoms: _75  and  _76
REMARK   33  A    between atoms: _75  and  _78
REMARK   34  A    between atoms: _78  and  _79
REMARK   35  A    between atoms: _79  and  _80
REMARK   36  A    between atoms: _85  and  _87
REMARK   37  A    between atoms: _87  and  _88
REMARK   38  A    between atoms: _87  and  _90
REMARK   39  A    between atoms: _90  and  _91
REMARK   40  A    between atoms: _93  and  _95
REMARK   41  A    between atoms: _95  and  _96
REMARK   42  A    between atoms: _95  and  _98
REMARK   43  A    between atoms: _101  and  _103
REMARK   44  A    between atoms: _103  and  _104
REMARK   45  A    between atoms: _103  and  _106
REMARK   46  A    between atoms: _108  and  _110
REMARK   47  A    between atoms: _110  and  _111
REMARK   48  A    between atoms: _110  and  _113
REMARK   49  A    between atoms: _113  and  _114
REMARK   50  A    between atoms: _119  and  _121
REMARK   51  A    between atoms: _121  and  _122
REMARK   52  A    between atoms: _125  and  _127
REMARK   53  A    between atoms: _127  and  _128
REMARK   54  A    between atoms: _127  and  _130
REMARK   55  A    between atoms: _130  and  _131
REMARK   56  A    between atoms: _133  and  _135
REMARK   57  A    between atoms: _135  and  _136
REMARK   58  A    between atoms: _139  and  _141
REMARK   59  A    between atoms: _141  and  _142
REMARK   60  A    between atoms: _141  and  _144
REMARK   61  A    between atoms: _144  and  _145
REMARK   62  A    between atoms: _155  and  _157
REMARK   63  A    between atoms: _157  and  _158
REMARK   64  A    between atoms: _157  and  _160
REMARK   65  A    between atoms: _160  and  _161
REMARK   66  A    between atoms: _164  and  _166
REMARK   67  A    between atoms: _166  and  _167
REMARK   68  A    between atoms: _166  and  _169
REMARK   69  A    between atoms: _169  and  _170
REMARK   70  A    between atoms: _175  and  _176
REMARK   71  A    between atoms: _178  and  _180
REMARK   72  A    between atoms: _180  and  _181
REMARK   73  A    between atoms: _180  and  _183
REMARK   74  A    between atoms: _183  and  _184
REMARK   75  A    between atoms: _184  and  _185
REMARK   76  A    between atoms: _185  and  _186
REMARK   77  A    between atoms: _195  and  _197
REMARK   78  A    between atoms: _197  and  _198
REMARK   79  A    between atoms: _197  and  _200
REMARK   80  A    between atoms: _200  and  _201
REMARK   81  A    between atoms: _204  and  _206
REMARK   82  A    between atoms: _206  and  _207
REMARK   83  A    between atoms: _206  and  _209
REMARK   84  A    between atoms: _209  and  _210
REMARK   85  A    between atoms: _210  and  _211
REMARK   86  A    between atoms: _211  and  _212
REMARK   87  A    between atoms: _212  and  _213
REMARK   88  A    between atoms: _217  and  _219
REMARK   89  A    between atoms: _219  and  _220
REMARK   90  A    between atoms: _219  and  _222
REMARK   91  A    between atoms: _222  and  _223
REMARK   92  A    between atoms: _223  and  _224
REMARK   93  A    between atoms: _229  and  _231
REMARK   94  A    between atoms: _231  and  _232
REMARK   95  A    between atoms: _231  and  _234
REMARK   96  A    between atoms: _234  and  _235
REMARK   97  A    between atoms: _235  and  _236
REMARK   98  A    between atoms: _236  and  _237
REMARK   99  A    between atoms: _246  and  _248
REMARK  100  A    between atoms: _248  and  _249
REMARK  101  A    between atoms: _248  and  _251
REMARK  102  A    between atoms: _251  and  _252
REMARK  103  A    between atoms: _252  and  _253
REMARK  104  A    between atoms: _258  and  _260
REMARK  105  A    between atoms: _260  and  _261
REMARK  106  A    between atoms: _260  and  _263
REMARK  107  A    between atoms: _263  and  _264
REMARK  108  A    between atoms: _267  and  _269
REMARK  109  A    between atoms: _269  and  _270
REMARK  110  A    between atoms: _269  and  _272
REMARK  111  A    between atoms: _272  and  _273
REMARK  112  A    between atoms: _273  and  _274
REMARK  113  A    between atoms: _279  and  _281
REMARK  114  A    between atoms: _281  and  _282
REMARK  115  A    between atoms: _281  and  _284
REMARK  116  A    between atoms: _284  and  _285
REMARK  117  A    between atoms: _288  and  _290
REMARK  118  A    between atoms: _290  and  _291
REMARK  119  A    between atoms: _290  and  _293
REMARK  120  A    between atoms: _293  and  _294
REMARK  121  A    between atoms: _300  and  _302
REMARK  122  A    between atoms: _302  and  _303
REMARK  123  A    between atoms: _302  and  _305
REMARK  124  A    between atoms: _305  and  _306
REMARK  125  A    between atoms: _309  and  _311
REMARK  126  A    between atoms: _311  and  _312
REMARK  127  A    between atoms: _311  and  _314
REMARK  128  A    between atoms: _317  and  _319
REMARK  129  A    between atoms: _319  and  _320
REMARK  130  A    between atoms: _319  and  _322
REMARK  131  A    between atoms: _322  and  _323
REMARK  132  A    between atoms: _328  and  _330
REMARK  133  A    between atoms: _341  and  _344
REMARK  134  A    between atoms: _344  and  _345
REMARK  135  A    between atoms: _345  and  _346
REMARK  136  A    between atoms: _351  and  _354
REMARK  137  A    between atoms: _354  and  _355
REMARK  138  A    between atoms: _365  and  _366
REMARK  139  A    between atoms: _374  and  _376
REMARK  140  A    between atoms: _376  and  _377
REMARK  141  A    between atoms: _376  and  _379
REMARK  142  A    between atoms: _379  and  _380
REMARK  143  A    between atoms: _383  and  _385
REMARK  144  A    between atoms: _385  and  _386
REMARK  145  A    between atoms: _385  and  _388
REMARK  146  A    between atoms: _388  and  _389
REMARK  147  A    between atoms: _394  and  _395
REMARK  148  A    between atoms: _397  and  _399
REMARK  149  A    between atoms: _399  and  _400
REMARK  150  A    between atoms: _399  and  _402
REMARK  151  A    between atoms: _402  and  _403
REMARK  152  A    between atoms: _409  and  _411
REMARK  153  A    between atoms: _411  and  _412
REMARK  154  A    between atoms: _411  and  _414
REMARK  155  A    between atoms: _414  and  _415
REMARK  156  A    between atoms: _420  and  _421
REMARK  157  A    between atoms: _423  and  _425
REMARK  158  A    between atoms: _425  and  _426
REMARK  159  A    between atoms: _425  and  _428
REMARK  160  A    between atoms: _428  and  _429
REMARK  161  A    between atoms: _429  and  _430
REMARK  162  A    between atoms: _430  and  _431
REMARK  163  A    between atoms: _440  and  _442
REMARK  164  A    between atoms: _442  and  _443
REMARK  165  A    between atoms: _442  and  _445
REMARK  166  A    between atoms: _445  and  _446
REMARK  167  A    between atoms: _449  and  _451
REMARK  168  A    between atoms: _451  and  _452
REMARK  169  A    between atoms: _454  and  _456
REMARK  170  A    between atoms: _456  and  _457
REMARK  171  A    between atoms: _456  and  _459
REMARK  172  A    between atoms: _459  and  _460
REMARK  173  A    between atoms: _466  and  _467
REMARK  174  A    between atoms: _472  and  _474
REMARK  175  A    between atoms: _474  and  _475
REMARK  176  A    between atoms: _477  and  _479
REMARK  177  A    between atoms: _479  and  _480
REMARK  178  A    between atoms: _479  and  _482
REMARK  179  A    between atoms: _482  and  _483
REMARK  180  A    between atoms: _489  and  _491
REMARK  181  A    between atoms: _491  and  _492
REMARK  182  A    between atoms: _491  and  _494
REMARK  183  A    between atoms: _494  and  _495
REMARK  184  A    between atoms: _500  and  _502
REMARK  185  A    between atoms: _502  and  _503
REMARK  186  A    between atoms: _502  and  _505
REMARK  187  A    between atoms: _505  and  _506
REMARK  188  A    between atoms: _506  and  _507
REMARK  189  A    between atoms: _507  and  _508
REMARK  190  A    between atoms: _508  and  ZN_790
REMARK  191  A    between atoms: _510  and  _512
REMARK  192  A    between atoms: _512  and  _513
REMARK  193  A    between atoms: _516  and  _518
REMARK  194  A    between atoms: _518  and  _519
REMARK  195  A    between atoms: _521  and  _523
REMARK  196  A    between atoms: _523  and  _524
REMARK  197  A    between atoms: _523  and  _526
REMARK  198  A    between atoms: _526  and  _527
REMARK  199  A    between atoms: _530  and  _532
REMARK  200  A    between atoms: _532  and  _533
REMARK  201  A    between atoms: _532  and  _535
REMARK  202  A    between atoms: _538  and  _540
REMARK  203  A    between atoms: _540  and  _541
REMARK  204  A    between atoms: _540  and  _543
REMARK  205  A    between atoms: _543  and  _544
REMARK  206  A    between atoms: _546  and  _548
REMARK  207  A    between atoms: _548  and  _549
REMARK  208  A    between atoms: _548  and  _551
REMARK  209  A    between atoms: _551  and  _552
REMARK  210  A    between atoms: _555  and  _557
REMARK  211  A    between atoms: _557  and  _558
REMARK  212  A    between atoms: _557  and  _560
REMARK  213  A    between atoms: _560  and  _561
REMARK  214  A    between atoms: _563  and  _565
REMARK  215  A    between atoms: _565  and  _566
REMARK  216  A    between atoms: _565  and  _568
REMARK  217  A    between atoms: _568  and  _569
REMARK  218  A    between atoms: _572  and  _574
REMARK  219  A    between atoms: _574  and  _575
REMARK  220  A    between atoms: _574  and  _577
REMARK  221  A    between atoms: _577  and  _578
REMARK  222  A    between atoms: _578  and  _579
REMARK  223  A    between atoms: _579  and  _580
REMARK  224  A    between atoms: _580  and  _581
REMARK  225  A    between atoms: _585  and  _587
REMARK  226  A    between atoms: _587  and  _588
REMARK  227  A    between atoms: _587  and  _590
REMARK  228  A    between atoms: _590  and  _591
REMARK  229  A    between atoms: _597  and  _599
REMARK  230  A    between atoms: _599  and  _600
REMARK  231  A    between atoms: _599  and  _602
REMARK  232  A    between atoms: _602  and  _603
REMARK  233  A    between atoms: _609  and  _611
REMARK  234  A    between atoms: _611  and  _612
REMARK  235  A    between atoms: _615  and  _617
REMARK  236  A    between atoms: _617  and  _618
REMARK  237  A    between atoms: _617  and  _620
REMARK  238  A    between atoms: _620  and  _621
REMARK  239  A    between atoms: _621  and  _622
REMARK  240  A    between atoms: _624  and  _626
REMARK  241  A    between atoms: _626  and  _627
REMARK  242  A    between atoms: _626  and  _629
REMARK  243  A    between atoms: _629  and  _630
REMARK  244  A    between atoms: _630  and  _631
REMARK  245  A    between atoms: _631  and  _632
REMARK  246  A    between atoms: _632  and  _633
REMARK  247  A    between atoms: _637  and  _639
REMARK  248  A    between atoms: _639  and  _640
REMARK  249  A    between atoms: _639  and  _642
REMARK  250  A    between atoms: _642  and  _643
REMARK  251  A    between atoms: _648  and  _649
REMARK  252  A    between atoms: _651  and  _653
REMARK  253  A    between atoms: _653  and  _654
REMARK  254  A    between atoms: _653  and  _656
REMARK  255  A    between atoms: _656  and  _657
REMARK  256  A    between atoms: _662  and  _664
REMARK  257  A    between atoms: _664  and  _665
REMARK  258  A    between atoms: _664  and  _667
REMARK  259  A    between atoms: _667  and  _668
REMARK  260  A    between atoms: _671  and  _673
REMARK  261  A    between atoms: _673  and  _674
REMARK  262  A    between atoms: _677  and  _679
REMARK  263  A    between atoms: _679  and  _680
REMARK  264  A    between atoms: _679  and  _682
REMARK  265  A    between atoms: _682  and  _683
REMARK  266  A    between atoms: _686  and  _688
REMARK  267  A    between atoms: _688  and  _689
REMARK  268  A    between atoms: _688  and  _691
REMARK  269  A    between atoms: _694  and  _696
REMARK  270  A    between atoms: _696  and  _697
REMARK  271  A    between atoms: _696  and  _699
REMARK  272  A    between atoms: _699  and  _700
REMARK  273  A    between atoms: _700  and  _701
REMARK  274  A    between atoms: _704  and  _706
REMARK  275  A    between atoms: _706  and  _707
REMARK  276  A    between atoms: _706  and  _709
REMARK  277  A    between atoms: _709  and  _710
REMARK  278  A    between atoms: _715  and  _716
REMARK  279  A    between atoms: _718  and  _720
REMARK  280  A    between atoms: _720  and  _721
REMARK  281  A    between atoms: _720  and  _723
REMARK  282  A    between atoms: _723  and  _724
REMARK  283  A    between atoms: _724  and  _725
REMARK  284  A    between atoms: _725  and  _726
REMARK  285  A    between atoms: _735  and  _737
REMARK  286  A    between atoms: _737  and  _738
REMARK  287  A    between atoms: _737  and  _740
REMARK  288  A    between atoms: _740  and  _741
REMARK  289  A    between atoms: _746  and  _747
REMARK  290  A    between atoms: _749  and  _751
REMARK  291  A    between atoms: _751  and  _752
REMARK  292  A    between atoms: _751  and  _754
REMARK  293  A    between atoms: _754  and  _755
REMARK  294  A    between atoms: _758  and  _760
REMARK  295  A    between atoms: _760  and  _761
REMARK  296  A    between atoms: _760  and  _763
REMARK  297  A    between atoms: _763  and  _764
REMARK  298  A    between atoms: _766  and  _768
REMARK  299  A    between atoms: _768  and  _769
REMARK  300  A    between atoms: _768  and  _771
REMARK  301  A    between atoms: _771  and  _772
REMARK  302  A    between atoms: _778  and  _780
REMARK  303  A    between atoms: _780  and  _781
REMARK  304  A    between atoms: _780  and  _783
REMARK  305  A    between atoms: _783  and  _784
REMARK  306  A    between atoms: _784  and  _785
REMARK                            x       y       z     vdW  Elec       q    Type
REMARK                         _______ _______ _______ _____ _____    ______ ____
ROOT
ATOM      1  O   HOH     1      25.842   7.437   7.118  0.00  0.00    +0.000 OA
ENDROOT
TORSDOF 0
REMARK  Name = ../refined-set-2016/4ca7/4ca7_pocket.pdb
REMARK  306 active torsions:
REMARK  status: ('A' for Active; 'I' for Inactive)
REMARK    1  A    between atoms: _1  and  _3
REMARK    2  A    between atoms: _3  and  _4
REMARK    3  A    between atoms: _3  and  _6
REMARK    4  A    between atoms: _6  and  _7
REMARK    5  A    between atoms: _7  and  _8
REMARK    6  A    between atoms: _8  and  _9
REMARK    7  A    between atoms: _9  and  _10
REMARK    8  A    between atoms: _14  and  _16
REMARK    9  A    between atoms: _16  and  _17
REMARK   10  A    between atoms: _16  and  _19
REMARK   11  A    between atoms: _19  and  _20
REMARK   12  A    between atoms: _20  and  _21
REMARK   13  A    between atoms: _24  and  _26
REMARK   14  A    between atoms: _26  and  _27
REMARK   15  A    between atoms: _26  and  _29
REMARK   16  A    between atoms: _29  and  _30
REMARK   17  A    between atoms: _30  and  _31
REMARK   18  A    between atoms: _34  and  _36
REMARK   19  A    between atoms: _36  and  _37
REMARK   20  A    between atoms: _36  and  _39
REMARK   21  A    between atoms: _39  and  _40
REMARK   22  A    between atoms: _45  and  _47
REMARK   23  A    between atoms: _47  and  _48
REMARK   24  A    between atoms: _47  and  _50
REMARK   25  A    between atoms: _50  and  _51
REMARK   26  A    between atoms: _61  and  _63
REMARK   27  A    between atoms: _63  and  _64
REMARK   28  A    between atoms: _63  and  _66
REMARK   29  A    between atoms: _66  and  _67
REMARK   30  A    between atoms: _67  and  _68
REMARK   31  A    between atoms: _73  and  _75
REMARK   32  A    between atoms: _75  and  _76
REMARK   33  A    between atoms: _75  and  _78
REMARK   34  A    between atoms: _78  and  _79
REMARK   35  A    between atoms: _79  and  _80
REMARK   36  A    between atoms: _85  and  _87
REMARK   37  A    between atoms: _87  and  _88
REMARK   38  A    between atoms: _87  and  _90
REMARK   39  A    between atoms: _90  and  _91
REMARK   40  A    between atoms: _93  and  _95
REMARK   41  A    between atoms: _95  and  _96
REMARK   42  A    between atoms: _95  and  _98
REMARK   43  A    between atoms: _101  and  _103
REMARK   44  A    between atoms: _103  and  _104
REMARK   45  A    between atoms: _103  and  _106
REMARK   46  A    between atoms: _108  and  _110
REMARK   47  A    between atoms: _110  and  _111
REMARK   48  A    between atoms: _110  and  _113
REMARK   49  A    between atoms: _113  and  _114
REMARK   50  A    between atoms: _119  and  _121
REMARK   51  A    between atoms: _121  and  _122
REMARK   52  A    between atoms: _125  and  _127
REMARK   53  A    between atoms: _127  and  _128
REMARK   54  A    between atoms: _127  and  _130
REMARK   55  A    between atoms: _130  and  _131
REMARK   56  A    between atoms: _133  and  _135
REMARK   57  A    between atoms: _135  and  _136
REMARK   58  A    between atoms: _139  and  _141
REMARK   59  A    between atoms: _141  and  _142
REMARK   60  A    between atoms: _141  and  _144
REMARK   61  A    between atoms: _144  and  _145
REMARK   62  A    between atoms: _155  and  _157
REMARK   63  A    between atoms: _157  and  _158
REMARK   64  A    between atoms: _157  and  _160
REMARK   65  A    between atoms: _160  and  _161
REMARK   66  A    between atoms: _164  and  _166
REMARK   67  A    between atoms: _166  and  _167
REMARK   68  A    between atoms: _166  and  _169
REMARK   69  A    between atoms: _169  and  _170
REMARK   70  A    between atoms: _175  and  _176
REMARK   71  A    between atoms: _178  and  _180
REMARK   72  A    between atoms: _180  and  _181
REMARK   73  A    between atoms: _180  and  _183
REMARK   74  A    between atoms: _183  and  _184
REMARK   75  A    between atoms: _184  and  _185
REMARK   76  A    between atoms: _185  and  _186
REMARK   77  A    between atoms: _195  and  _197
REMARK   78  A    between atoms: _197  and  _198
REMARK   79  A    between atoms: _197  and  _200
REMARK   80  A    between atoms: _200  and  _201
REMARK   81  A    between atoms: _204  and  _206
REMARK   82  A    between atoms: _206  and  _207
REMARK   83  A    between atoms: _206  and  _209
REMARK   84  A    between atoms: _209  and  _210
REMARK   85  A    between atoms: _210  and  _211
REMARK   86  A    between atoms: _211  and  _212
REMARK   87  A    between atoms: _212  and  _213
REMARK   88  A    between atoms: _217  and  _219
REMARK   89  A    between atoms: _219  and  _220
REMARK   90  A    between atoms: _219  and  _222
REMARK   91  A    between atoms: _222  and  _223
REMARK   92  A    between atoms: _223  and  _224
REMARK   93  A    between atoms: _229  and  _231
REMARK   94  A    between atoms: _231  and  _232
REMARK   95  A    between atoms: _231  and  _234
REMARK   96  A    between atoms: _234  and  _235
REMARK   97  A    between atoms: _235  and  _236
REMARK   98  A    between atoms: _236  and  _237
REMARK   99  A    between atoms: _246  and  _248
REMARK  100  A    between atoms: _248  and  _249
REMARK  101  A    between atoms: _248  and  _251
REMARK  102  A    between atoms: _251  and  _252
REMARK  103  A    between atoms: _252  and  _253
REMARK  104  A    between atoms: _258  and  _260
REMARK  105  A    between atoms: _260  and  _261
REMARK  106  A    between atoms: _260  and  _263
REMARK  107  A    between atoms: _263  and  _264
REMARK  108  A    between atoms: _267  and  _269
REMARK  109  A    between atoms: _269  and  _270
REMARK  110  A    between atoms: _269  and  _272
REMARK  111  A    between atoms: _272  and  _273
REMARK  112  A    between atoms: _273  and  _274
REMARK  113  A    between atoms: _279  and  _281
REMARK  114  A    between atoms: _281  and  _282
REMARK  115  A    between atoms: _281  and  _284
REMARK  116  A    between atoms: _284  and  _285
REMARK  117  A    between atoms: _288  and  _290
REMARK  118  A    between atoms: _290  and  _291
REMARK  119  A    between atoms: _290  and  _293
REMARK  120  A    between atoms: _293  and  _294
REMARK  121  A    between atoms: _300  and  _302
REMARK  122  A    between atoms: _302  and  _303
REMARK  123  A    between atoms: _302  and  _305
REMARK  124  A    between atoms: _305  and  _306
REMARK  125  A    between atoms: _309  and  _311
REMARK  126  A    between atoms: _311  and  _312
REMARK  127  A    between atoms: _311  and  _314
REMARK  128  A    between atoms: _317  and  _319
REMARK  129  A    between atoms: _319  and  _320
REMARK  130  A    between atoms: _319  and  _322
REMARK  131  A    between atoms: _322  and  _323
REMARK  132  A    between atoms: _328  and  _330
REMARK  133  A    between atoms: _341  and  _344
REMARK  134  A    between atoms: _344  and  _345
REMARK  135  A    between atoms: _345  and  _346
REMARK  136  A    between atoms: _351  and  _354
REMARK  137  A    between atoms: _354  and  _355
REMARK  138  A    between atoms: _365  and  _366
REMARK  139  A    between atoms: _374  and  _376
REMARK  140  A    between atoms: _376  and  _377
REMARK  141  A    between atoms: _376  and  _379
REMARK  142  A    between atoms: _379  and  _380
REMARK  143  A    between atoms: _383  and  _385
REMARK  144  A    between atoms: _385  and  _386
REMARK  145  A    between atoms: _385  and  _388
REMARK  146  A    between atoms: _388  and  _389
REMARK  147  A    between atoms: _394  and  _395
REMARK  148  A    between atoms: _397  and  _399
REMARK  149  A    between atoms: _399  and  _400
REMARK  150  A    between atoms: _399  and  _402
REMARK  151  A    between atoms: _402  and  _403
REMARK  152  A    between atoms: _409  and  _411
REMARK  153  A    between atoms: _411  and  _412
REMARK  154  A    between atoms: _411  and  _414
REMARK  155  A    between atoms: _414  and  _415
REMARK  156  A    between atoms: _420  and  _421
REMARK  157  A    between atoms: _423  and  _425
REMARK  158  A    between atoms: _425  and  _426
REMARK  159  A    between atoms: _425  and  _428
REMARK  160  A    between atoms: _428  and  _429
REMARK  161  A    between atoms: _429  and  _430
REMARK  162  A    between atoms: _430  and  _431
REMARK  163  A    between atoms: _440  and  _442
REMARK  164  A    between atoms: _442  and  _443
REMARK  165  A    between atoms: _442  and  _445
REMARK  166  A    between atoms: _445  and  _446
REMARK  167  A    between atoms: _449  and  _451
REMARK  168  A    between atoms: _451  and  _452
REMARK  169  A    between atoms: _454  and  _456
REMARK  170  A    between atoms: _456  and  _457
REMARK  171  A    between atoms: _456  and  _459
REMARK  172  A    between atoms: _459  and  _460
REMARK  173  A    between atoms: _466  and  _467
REMARK  174  A    between atoms: _472  and  _474
REMARK  175  A    between atoms: _474  and  _475
REMARK  176  A    between atoms: _477  and  _479
REMARK  177  A    between atoms: _479  and  _480
REMARK  178  A    between atoms: _479  and  _482
REMARK  179  A    between atoms: _482  and  _483
REMARK  180  A    between atoms: _489  and  _491
REMARK  181  A    between atoms: _491  and  _492
REMARK  182  A    between atoms: _491  and  _494
REMARK  183  A    between atoms: _494  and  _495
REMARK  184  A    between atoms: _500  and  _502
REMARK  185  A    between atoms: _502  and  _503
REMARK  186  A    between atoms: _502  and  _505
REMARK  187  A    between atoms: _505  and  _506
REMARK  188  A    between atoms: _506  and  _507
REMARK  189  A    between atoms: _507  and  _508
REMARK  190  A    between atoms: _508  and  ZN_790
REMARK  191  A    between atoms: _510  and  _512
REMARK  192  A    between atoms: _512  and  _513
REMARK  193  A    between atoms: _516  and  _518
REMARK  194  A    between atoms: _518  and  _519
REMARK  195  A    between atoms: _521  and  _523
REMARK  196  A    between atoms: _523  and  _524
REMARK  197  A    between atoms: _523  and  _526
REMARK  198  A    between atoms: _526  and  _527
REMARK  199  A    between atoms: _530  and  _532
REMARK  200  A    between atoms: _532  and  _533
REMARK  201  A    between atoms: _532  and  _535
REMARK  202  A    between atoms: _538  and  _540
REMARK  203  A    between atoms: _540  and  _541
REMARK  204  A    between atoms: _540  and  _543
REMARK  205  A    between atoms: _543  and  _544
REMARK  206  A    between atoms: _546  and  _548
REMARK  207  A    between atoms: _548  and  _549
REMARK  208  A    between atoms: _548  and  _551
REMARK  209  A    between atoms: _551  and  _552
REMARK  210  A    between atoms: _555  and  _557
REMARK  211  A    between atoms: _557  and  _558
REMARK  212  A    between atoms: _557  and  _560
REMARK  213  A    between atoms: _560  and  _561
REMARK  214  A    between atoms: _563  and  _565
REMARK  215  A    between atoms: _565  and  _566
REMARK  216  A    between atoms: _565  and  _568
REMARK  217  A    between atoms: _568  and  _569
REMARK  218  A    between atoms: _572  and  _574
REMARK  219  A    between atoms: _574  and  _575
REMARK  220  A    between atoms: _574  and  _577
REMARK  221  A    between atoms: _577  and  _578
REMARK  222  A    between atoms: _578  and  _579
REMARK  223  A    between atoms: _579  and  _580
REMARK  224  A    between atoms: _580  and  _581
REMARK  225  A    between atoms: _585  and  _587
REMARK  226  A    between atoms: _587  and  _588
REMARK  227  A    between atoms: _587  and  _590
REMARK  228  A    between atoms: _590  and  _591
REMARK  229  A    between atoms: _597  and  _599
REMARK  230  A    between atoms: _599  and  _600
REMARK  231  A    between atoms: _599  and  _602
REMARK  232  A    between atoms: _602  and  _603
REMARK  233  A    between atoms: _609  and  _611
REMARK  234  A    between atoms: _611  and  _612
REMARK  235  A    between atoms: _615  and  _617
REMARK  236  A    between atoms: _617  and  _618
REMARK  237  A    between atoms: _617  and  _620
REMARK  238  A    between atoms: _620  and  _621
REMARK  239  A    between atoms: _621  and  _622
REMARK  240  A    between atoms: _624  and  _626
REMARK  241  A    between atoms: _626  and  _627
REMARK  242  A    between atoms: _626  and  _629
REMARK  243  A    between atoms: _629  and  _630
REMARK  244  A    between atoms: _630  and  _631
REMARK  245  A    between atoms: _631  and  _632
REMARK  246  A    between atoms: _632  and  _633
REMARK  247  A    between atoms: _637  and  _639
REMARK  248  A    between atoms: _639  and  _640
REMARK  249  A    between atoms: _639  and  _642
REMARK  250  A    between atoms: _642  and  _643
REMARK  251  A    between atoms: _648  and  _649
REMARK  252  A    between atoms: _651  and  _653
REMARK  253  A    between atoms: _653  and  _654
REMARK  254  A    between atoms: _653  and  _656
REMARK  255  A    between atoms: _656  and  _657
REMARK  256  A    between atoms: _662  and  _664
REMARK  257  A    between atoms: _664  and  _665
REMARK  258  A    between atoms: _664  and  _667
REMARK  259  A    between atoms: _667  and  _668
REMARK  260  A    between atoms: _671  and  _673
REMARK  261  A    between atoms: _673  and  _674
REMARK  262  A    between atoms: _677  and  _679
REMARK  263  A    between atoms: _679  and  _680
REMARK  264  A    between atoms: _679  and  _682
REMARK  265  A    between atoms: _682  and  _683
REMARK  266  A    between atoms: _686  and  _688
REMARK  267  A    between atoms: _688  and  _689
REMARK  268  A    between atoms: _688  and  _691
REMARK  269  A    between atoms: _694  and  _696
REMARK  270  A    between atoms: _696  and  _697
REMARK  271  A    between atoms: _696  and  _699
REMARK  272  A    between atoms: _699  and  _700
REMARK  273  A    between atoms: _700  and  _701
REMARK  274  A    between atoms: _704  and  _706
REMARK  275  A    between atoms: _706  and  _707
REMARK  276  A    between atoms: _706  and  _709
REMARK  277  A    between atoms: _709  and  _710
REMARK  278  A    between atoms: _715  and  _716
REMARK  279  A    between atoms: _718  and  _720
REMARK  280  A    between atoms: _720  and  _721
REMARK  281  A    between atoms: _720  and  _723
REMARK  282  A    between atoms: _723  and  _724
REMARK  283  A    between atoms: _724  and  _725
REMARK  284  A    between atoms: _725  and  _726
REMARK  285  A    between atoms: _735  and  _737
REMARK  286  A    between atoms: _737  and  _738
REMARK  287  A    between atoms: _737  and  _740
REMARK  288  A    between atoms: _740  and  _741
REMARK  289  A    between atoms: _746  and  _747
REMARK  290  A    between atoms: _749  and  _751
REMARK  291  A    between atoms: _751  and  _752
REMARK  292  A    between atoms: _751  and  _754
REMARK  293  A    between atoms: _754  and  _755
REMARK  294  A    between atoms: _758  and  _760
REMARK  295  A    between atoms: _760  and  _761
REMARK  296  A    between atoms: _760  and  _763
REMARK  297  A    between atoms: _763  and  _764
REMARK  298  A    between atoms: _766  and  _768
REMARK  299  A    between atoms: _768  and  _769
REMARK  300  A    between atoms: _768  and  _771
REMARK  301  A    between atoms: _771  and  _772
REMARK  302  A    between atoms: _778  and  _780
REMARK  303  A    between atoms: _780  and  _781
REMARK  304  A    between atoms: _780  and  _783
REMARK  305  A    between atoms: _783  and  _784
REMARK  306  A    between atoms: _784  and  _785
REMARK                            x       y       z     vdW  Elec       q    Type
REMARK                         _______ _______ _______ _____ _____    ______ ____
ROOT
ATOM      1  O   HOH     1      28.771  -2.393   0.545  0.00  0.00    +0.000 OA
ENDROOT
TORSDOF 0
REMARK  Name = ../refined-set-2016/4ca7/4ca7_pocket.pdb
REMARK  306 active torsions:
REMARK  status: ('A' for Active; 'I' for Inactive)
REMARK    1  A    between atoms: _1  and  _3
REMARK    2  A    between atoms: _3  and  _4
REMARK    3  A    between atoms: _3  and  _6
REMARK    4  A    between atoms: _6  and  _7
REMARK    5  A    between atoms: _7  and  _8
REMARK    6  A    between atoms: _8  and  _9
REMARK    7  A    between atoms: _9  and  _10
REMARK    8  A    between atoms: _14  and  _16
REMARK    9  A    between atoms: _16  and  _17
REMARK   10  A    between atoms: _16  and  _19
REMARK   11  A    between atoms: _19  and  _20
REMARK   12  A    between atoms: _20  and  _21
REMARK   13  A    between atoms: _24  and  _26
REMARK   14  A    between atoms: _26  and  _27
REMARK   15  A    between atoms: _26  and  _29
REMARK   16  A    between atoms: _29  and  _30
REMARK   17  A    between atoms: _30  and  _31
REMARK   18  A    between atoms: _34  and  _36
REMARK   19  A    between atoms: _36  and  _37
REMARK   20  A    between atoms: _36  and  _39
REMARK   21  A    between atoms: _39  and  _40
REMARK   22  A    between atoms: _45  and  _47
REMARK   23  A    between atoms: _47  and  _48
REMARK   24  A    between atoms: _47  and  _50
REMARK   25  A    between atoms: _50  and  _51
REMARK   26  A    between atoms: _61  and  _63
REMARK   27  A    between atoms: _63  and  _64
REMARK   28  A    between atoms: _63  and  _66
REMARK   29  A    between atoms: _66  and  _67
REMARK   30  A    between atoms: _67  and  _68
REMARK   31  A    between atoms: _73  and  _75
REMARK   32  A    between atoms: _75  and  _76
REMARK   33  A    between atoms: _75  and  _78
REMARK   34  A    between atoms: _78  and  _79
REMARK   35  A    between atoms: _79  and  _80
REMARK   36  A    between atoms: _85  and  _87
REMARK   37  A    between atoms: _87  and  _88
REMARK   38  A    between atoms: _87  and  _90
REMARK   39  A    between atoms: _90  and  _91
REMARK   40  A    between atoms: _93  and  _95
REMARK   41  A    between atoms: _95  and  _96
REMARK   42  A    between atoms: _95  and  _98
REMARK   43  A    between atoms: _101  and  _103
REMARK   44  A    between atoms: _103  and  _104
REMARK   45  A    between atoms: _103  and  _106
REMARK   46  A    between atoms: _108  and  _110
REMARK   47  A    between atoms: _110  and  _111
REMARK   48  A    between atoms: _110  and  _113
REMARK   49  A    between atoms: _113  and  _114
REMARK   50  A    between atoms: _119  and  _121
REMARK   51  A    between atoms: _121  and  _122
REMARK   52  A    between atoms: _125  and  _127
REMARK   53  A    between atoms: _127  and  _128
REMARK   54  A    between atoms: _127  and  _130
REMARK   55  A    between atoms: _130  and  _131
REMARK   56  A    between atoms: _133  and  _135
REMARK   57  A    between atoms: _135  and  _136
REMARK   58  A    between atoms: _139  and  _141
REMARK   59  A    between atoms: _141  and  _142
REMARK   60  A    between atoms: _141  and  _144
REMARK   61  A    between atoms: _144  and  _145
REMARK   62  A    between atoms: _155  and  _157
REMARK   63  A    between atoms: _157  and  _158
REMARK   64  A    between atoms: _157  and  _160
REMARK   65  A    between atoms: _160  and  _161
REMARK   66  A    between atoms: _164  and  _166
REMARK   67  A    between atoms: _166  and  _167
REMARK   68  A    between atoms: _166  and  _169
REMARK   69  A    between atoms: _169  and  _170
REMARK   70  A    between atoms: _175  and  _176
REMARK   71  A    between atoms: _178  and  _180
REMARK   72  A    between atoms: _180  and  _181
REMARK   73  A    between atoms: _180  and  _183
REMARK   74  A    between atoms: _183  and  _184
REMARK   75  A    between atoms: _184  and  _185
REMARK   76  A    between atoms: _185  and  _186
REMARK   77  A    between atoms: _195  and  _197
REMARK   78  A    between atoms: _197  and  _198
REMARK   79  A    between atoms: _197  and  _200
REMARK   80  A    between atoms: _200  and  _201
REMARK   81  A    between atoms: _204  and  _206
REMARK   82  A    between atoms: _206  and  _207
REMARK   83  A    between atoms: _206  and  _209
REMARK   84  A    between atoms: _209  and  _210
REMARK   85  A    between atoms: _210  and  _211
REMARK   86  A    between atoms: _211  and  _212
REMARK   87  A    between atoms: _212  and  _213
REMARK   88  A    between atoms: _217  and  _219
REMARK   89  A    between atoms: _219  and  _220
REMARK   90  A    between atoms: _219  and  _222
REMARK   91  A    between atoms: _222  and  _223
REMARK   92  A    between atoms: _223  and  _224
REMARK   93  A    between atoms: _229  and  _231
REMARK   94  A    between atoms: _231  and  _232
REMARK   95  A    between atoms: _231  and  _234
REMARK   96  A    between atoms: _234  and  _235
REMARK   97  A    between atoms: _235  and  _236
REMARK   98  A    between atoms: _236  and  _237
REMARK   99  A    between atoms: _246  and  _248
REMARK  100  A    between atoms: _248  and  _249
REMARK  101  A    between atoms: _248  and  _251
REMARK  102  A    between atoms: _251  and  _252
REMARK  103  A    between atoms: _252  and  _253
REMARK  104  A    between atoms: _258  and  _260
REMARK  105  A    between atoms: _260  and  _261
REMARK  106  A    between atoms: _260  and  _263
REMARK  107  A    between atoms: _263  and  _264
REMARK  108  A    between atoms: _267  and  _269
REMARK  109  A    between atoms: _269  and  _270
REMARK  110  A    between atoms: _269  and  _272
REMARK  111  A    between atoms: _272  and  _273
REMARK  112  A    between atoms: _273  and  _274
REMARK  113  A    between atoms: _279  and  _281
REMARK  114  A    between atoms: _281  and  _282
REMARK  115  A    between atoms: _281  and  _284
REMARK  116  A    between atoms: _284  and  _285
REMARK  117  A    between atoms: _288  and  _290
REMARK  118  A    between atoms: _290  and  _291
REMARK  119  A    between atoms: _290  and  _293
REMARK  120  A    between atoms: _293  and  _294
REMARK  121  A    between atoms: _300  and  _302
REMARK  122  A    between atoms: _302  and  _303
REMARK  123  A    between atoms: _302  and  _305
REMARK  124  A    between atoms: _305  and  _306
REMARK  125  A    between atoms: _309  and  _311
REMARK  126  A    between atoms: _311  and  _312
REMARK  127  A    between atoms: _311  and  _314
REMARK  128  A    between atoms: _317  and  _319
REMARK  129  A    between atoms: _319  and  _320
REMARK  130  A    between atoms: _319  and  _322
REMARK  131  A    between atoms: _322  and  _323
REMARK  132  A    between atoms: _328  and  _330
REMARK  133  A    between atoms: _341  and  _344
REMARK  134  A    between atoms: _344  and  _345
REMARK  135  A    between atoms: _345  and  _346
REMARK  136  A    between atoms: _351  and  _354
REMARK  137  A    between atoms: _354  and  _355
REMARK  138  A    between atoms: _365  and  _366
REMARK  139  A    between atoms: _374  and  _376
REMARK  140  A    between atoms: _376  and  _377
REMARK  141  A    between atoms: _376  and  _379
REMARK  142  A    between atoms: _379  and  _380
REMARK  143  A    between atoms: _383  and  _385
REMARK  144  A    between atoms: _385  and  _386
REMARK  145  A    between atoms: _385  and  _388
REMARK  146  A    between atoms: _388  and  _389
REMARK  147  A    between atoms: _394  and  _395
REMARK  148  A    between atoms: _397  and  _399
REMARK  149  A    between atoms: _399  and  _400
REMARK  150  A    between atoms: _399  and  _402
REMARK  151  A    between atoms: _402  and  _403
REMARK  152  A    between atoms: _409  and  _411
REMARK  153  A    between atoms: _411  and  _412
REMARK  154  A    between atoms: _411  and  _414
REMARK  155  A    between atoms: _414  and  _415
REMARK  156  A    between atoms: _420  and  _421
REMARK  157  A    between atoms: _423  and  _425
REMARK  158  A    between atoms: _425  and  _426
REMARK  159  A    between atoms: _425  and  _428
REMARK  160  A    between atoms: _428  and  _429
REMARK  161  A    between atoms: _429  and  _430
REMARK  162  A    between atoms: _430  and  _431
REMARK  163  A    between atoms: _440  and  _442
REMARK  164  A    between atoms: _442  and  _443
REMARK  165  A    between atoms: _442  and  _445
REMARK  166  A    between atoms: _445  and  _446
REMARK  167  A    between atoms: _449  and  _451
REMARK  168  A    between atoms: _451  and  _452
REMARK  169  A    between atoms: _454  and  _456
REMARK  170  A    between atoms: _456  and  _457
REMARK  171  A    between atoms: _456  and  _459
REMARK  172  A    between atoms: _459  and  _460
REMARK  173  A    between atoms: _466  and  _467
REMARK  174  A    between atoms: _472  and  _474
REMARK  175  A    between atoms: _474  and  _475
REMARK  176  A    between atoms: _477  and  _479
REMARK  177  A    between atoms: _479  and  _480
REMARK  178  A    between atoms: _479  and  _482
REMARK  179  A    between atoms: _482  and  _483
REMARK  180  A    between atoms: _489  and  _491
REMARK  181  A    between atoms: _491  and  _492
REMARK  182  A    between atoms: _491  and  _494
REMARK  183  A    between atoms: _494  and  _495
REMARK  184  A    between atoms: _500  and  _502
REMARK  185  A    between atoms: _502  and  _503
REMARK  186  A    between atoms: _502  and  _505
REMARK  187  A    between atoms: _505  and  _506
REMARK  188  A    between atoms: _506  and  _507
REMARK  189  A    between atoms: _507  and  _508
REMARK  190  A    between atoms: _508  and  ZN_790
REMARK  191  A    between atoms: _510  and  _512
REMARK  192  A    between atoms: _512  and  _513
REMARK  193  A    between atoms: _516  and  _518
REMARK  194  A    between atoms: _518  and  _519
REMARK  195  A    between atoms: _521  and  _523
REMARK  196  A    between atoms: _523  and  _524
REMARK  197  A    between atoms: _523  and  _526
REMARK  198  A    between atoms: _526  and  _527
REMARK  199  A    between atoms: _530  and  _532
REMARK  200  A    between atoms: _532  and  _533
REMARK  201  A    between atoms: _532  and  _535
REMARK  202  A    between atoms: _538  and  _540
REMARK  203  A    between atoms: _540  and  _541
REMARK  204  A    between atoms: _540  and  _543
REMARK  205  A    between atoms: _543  and  _544
REMARK  206  A    between atoms: _546  and  _548
REMARK  207  A    between atoms: _548  and  _549
REMARK  208  A    between atoms: _548  and  _551
REMARK  209  A    between atoms: _551  and  _552
REMARK  210  A    between atoms: _555  and  _557
REMARK  211  A    between atoms: _557  and  _558
REMARK  212  A    between atoms: _557  and  _560
REMARK  213  A    between atoms: _560  and  _561
REMARK  214  A    between atoms: _563  and  _565
REMARK  215  A    between atoms: _565  and  _566
REMARK  216  A    between atoms: _565  and  _568
REMARK  217  A    between atoms: _568  and  _569
REMARK  218  A    between atoms: _572  and  _574
REMARK  219  A    between atoms: _574  and  _575
REMARK  220  A    between atoms: _574  and  _577
REMARK  221  A    between atoms: _577  and  _578
REMARK  222  A    between atoms: _578  and  _579
REMARK  223  A    between atoms: _579  and  _580
REMARK  224  A    between atoms: _580  and  _581
REMARK  225  A    between atoms: _585  and  _587
REMARK  226  A    between atoms: _587  and  _588
REMARK  227  A    between atoms: _587  and  _590
REMARK  228  A    between atoms: _590  and  _591
REMARK  229  A    between atoms: _597  and  _599
REMARK  230  A    between atoms: _599  and  _600
REMARK  231  A    between atoms: _599  and  _602
REMARK  232  A    between atoms: _602  and  _603
REMARK  233  A    between atoms: _609  and  _611
REMARK  234  A    between atoms: _611  and  _612
REMARK  235  A    between atoms: _615  and  _617
REMARK  236  A    between atoms: _617  and  _618
REMARK  237  A    between atoms: _617  and  _620
REMARK  238  A    between atoms: _620  and  _621
REMARK  239  A    between atoms: _621  and  _622
REMARK  240  A    between atoms: _624  and  _626
REMARK  241  A    between atoms: _626  and  _627
REMARK  242  A    between atoms: _626  and  _629
REMARK  243  A    between atoms: _629  and  _630
REMARK  244  A    between atoms: _630  and  _631
REMARK  245  A    between atoms: _631  and  _632
REMARK  246  A    between atoms: _632  and  _633
REMARK  247  A    between atoms: _637  and  _639
REMARK  248  A    between atoms: _639  and  _640
REMARK  249  A    between atoms: _639  and  _642
REMARK  250  A    between atoms: _642  and  _643
REMARK  251  A    between atoms: _648  and  _649
REMARK  252  A    between atoms: _651  and  _653
REMARK  253  A    between atoms: _653  and  _654
REMARK  254  A    between atoms: _653  and  _656
REMARK  255  A    between atoms: _656  and  _657
REMARK  256  A    between atoms: _662  and  _664
REMARK  257  A    between atoms: _664  and  _665
REMARK  258  A    between atoms: _664  and  _667
REMARK  259  A    between atoms: _667  and  _668
REMARK  260  A    between atoms: _671  and  _673
REMARK  261  A    between atoms: _673  and  _674
REMARK  262  A    between atoms: _677  and  _679
REMARK  263  A    between atoms: _679  and  _680
REMARK  264  A    between atoms: _679  and  _682
REMARK  265  A    between atoms: _682  and  _683
REMARK  266  A    between atoms: _686  and  _688
REMARK  267  A    between atoms: _688  and  _689
REMARK  268  A    between atoms: _688  and  _691
REMARK  269  A    between atoms: _694  and  _696
REMARK  270  A    between atoms: _696  and  _697
REMARK  271  A    between atoms: _696  and  _699
REMARK  272  A    between atoms: _699  and  _700
REMARK  273  A    between atoms: _700  and  _701
REMARK  274  A    between atoms: _704  and  _706
REMARK  275  A    between atoms: _706  and  _707
REMARK  276  A    between atoms: _706  and  _709
REMARK  277  A    between atoms: _709  and  _710
REMARK  278  A    between atoms: _715  and  _716
REMARK  279  A    between atoms: _718  and  _720
REMARK  280  A    between atoms: _720  and  _721
REMARK  281  A    between atoms: _720  and  _723
REMARK  282  A    between atoms: _723  and  _724
REMARK  283  A    between atoms: _724  and  _725
REMARK  284  A    between atoms: _725  and  _726
REMARK  285  A    between atoms: _735  and  _737
REMARK  286  A    between atoms: _737  and  _738
REMARK  287  A    between atoms: _737  and  _740
REMARK  288  A    between atoms: _740  and  _741
REMARK  289  A    between atoms: _746  and  _747
REMARK  290  A    between atoms: _749  and  _751
REMARK  291  A    between atoms: _751  and  _752
REMARK  292  A    between atoms: _751  and  _754
REMARK  293  A    between atoms: _754  and  _755
REMARK  294  A    between atoms: _758  and  _760
REMARK  295  A    between atoms: _760  and  _761
REMARK  296  A    between atoms: _760  and  _763
REMARK  297  A    between atoms: _763  and  _764
REMARK  298  A    between atoms: _766  and  _768
REMARK  299  A    between atoms: _768  and  _769
REMARK  300  A    between atoms: _768  and  _771
REMARK  301  A    between atoms: _771  and  _772
REMARK  302  A    between atoms: _778  and  _780
REMARK  303  A    between atoms: _780  and  _781
REMARK  304  A    between atoms: _780  and  _783
REMARK  305  A    between atoms: _783  and  _784
REMARK  306  A    between atoms: _784  and  _785
REMARK                            x       y       z     vdW  Elec       q    Type
REMARK                         _______ _______ _______ _____ _____    ______ ____
ROOT
ATOM      1  O   HOH     1      28.488 -14.653  12.513  0.00  0.00    +0.000 OA
ENDROOT
TORSDOF 0
REMARK  Name = ../refined-set-2016/4ca7/4ca7_pocket.pdb
REMARK  306 active torsions:
REMARK  status: ('A' for Active; 'I' for Inactive)
REMARK    1  A    between atoms: _1  and  _3
REMARK    2  A    between atoms: _3  and  _4
REMARK    3  A    between atoms: _3  and  _6
REMARK    4  A    between atoms: _6  and  _7
REMARK    5  A    between atoms: _7  and  _8
REMARK    6  A    between atoms: _8  and  _9
REMARK    7  A    between atoms: _9  and  _10
REMARK    8  A    between atoms: _14  and  _16
REMARK    9  A    between atoms: _16  and  _17
REMARK   10  A    between atoms: _16  and  _19
REMARK   11  A    between atoms: _19  and  _20
REMARK   12  A    between atoms: _20  and  _21
REMARK   13  A    between atoms: _24  and  _26
REMARK   14  A    between atoms: _26  and  _27
REMARK   15  A    between atoms: _26  and  _29
REMARK   16  A    between atoms: _29  and  _30
REMARK   17  A    between atoms: _30  and  _31
REMARK   18  A    between atoms: _34  and  _36
REMARK   19  A    between atoms: _36  and  _37
REMARK   20  A    between atoms: _36  and  _39
REMARK   21  A    between atoms: _39  and  _40
REMARK   22  A    between atoms: _45  and  _47
REMARK   23  A    between atoms: _47  and  _48
REMARK   24  A    between atoms: _47  and  _50
REMARK   25  A    between atoms: _50  and  _51
REMARK   26  A    between atoms: _61  and  _63
REMARK   27  A    between atoms: _63  and  _64
REMARK   28  A    between atoms: _63  and  _66
REMARK   29  A    between atoms: _66  and  _67
REMARK   30  A    between atoms: _67  and  _68
REMARK   31  A    between atoms: _73  and  _75
REMARK   32  A    between atoms: _75  and  _76
REMARK   33  A    between atoms: _75  and  _78
REMARK   34  A    between atoms: _78  and  _79
REMARK   35  A    between atoms: _79  and  _80
REMARK   36  A    between atoms: _85  and  _87
REMARK   37  A    between atoms: _87  and  _88
REMARK   38  A    between atoms: _87  and  _90
REMARK   39  A    between atoms: _90  and  _91
REMARK   40  A    between atoms: _93  and  _95
REMARK   41  A    between atoms: _95  and  _96
REMARK   42  A    between atoms: _95  and  _98
REMARK   43  A    between atoms: _101  and  _103
REMARK   44  A    between atoms: _103  and  _104
REMARK   45  A    between atoms: _103  and  _106
REMARK   46  A    between atoms: _108  and  _110
REMARK   47  A    between atoms: _110  and  _111
REMARK   48  A    between atoms: _110  and  _113
REMARK   49  A    between atoms: _113  and  _114
REMARK   50  A    between atoms: _119  and  _121
REMARK   51  A    between atoms: _121  and  _122
REMARK   52  A    between atoms: _125  and  _127
REMARK   53  A    between atoms: _127  and  _128
REMARK   54  A    between atoms: _127  and  _130
REMARK   55  A    between atoms: _130  and  _131
REMARK   56  A    between atoms: _133  and  _135
REMARK   57  A    between atoms: _135  and  _136
REMARK   58  A    between atoms: _139  and  _141
REMARK   59  A    between atoms: _141  and  _142
REMARK   60  A    between atoms: _141  and  _144
REMARK   61  A    between atoms: _144  and  _145
REMARK   62  A    between atoms: _155  and  _157
REMARK   63  A    between atoms: _157  and  _158
REMARK   64  A    between atoms: _157  and  _160
REMARK   65  A    between atoms: _160  and  _161
REMARK   66  A    between atoms: _164  and  _166
REMARK   67  A    between atoms: _166  and  _167
REMARK   68  A    between atoms: _166  and  _169
REMARK   69  A    between atoms: _169  and  _170
REMARK   70  A    between atoms: _175  and  _176
REMARK   71  A    between atoms: _178  and  _180
REMARK   72  A    between atoms: _180  and  _181
REMARK   73  A    between atoms: _180  and  _183
REMARK   74  A    between atoms: _183  and  _184
REMARK   75  A    between atoms: _184  and  _185
REMARK   76  A    between atoms: _185  and  _186
REMARK   77  A    between atoms: _195  and  _197
REMARK   78  A    between atoms: _197  and  _198
REMARK   79  A    between atoms: _197  and  _200
REMARK   80  A    between atoms: _200  and  _201
REMARK   81  A    between atoms: _204  and  _206
REMARK   82  A    between atoms: _206  and  _207
REMARK   83  A    between atoms: _206  and  _209
REMARK   84  A    between atoms: _209  and  _210
REMARK   85  A    between atoms: _210  and  _211
REMARK   86  A    between atoms: _211  and  _212
REMARK   87  A    between atoms: _212  and  _213
REMARK   88  A    between atoms: _217  and  _219
REMARK   89  A    between atoms: _219  and  _220
REMARK   90  A    between atoms: _219  and  _222
REMARK   91  A    between atoms: _222  and  _223
REMARK   92  A    between atoms: _223  and  _224
REMARK   93  A    between atoms: _229  and  _231
REMARK   94  A    between atoms: _231  and  _232
REMARK   95  A    between atoms: _231  and  _234
REMARK   96  A    between atoms: _234  and  _235
REMARK   97  A    between atoms: _235  and  _236
REMARK   98  A    between atoms: _236  and  _237
REMARK   99  A    between atoms: _246  and  _248
REMARK  100  A    between atoms: _248  and  _249
REMARK  101  A    between atoms: _248  and  _251
REMARK  102  A    between atoms: _251  and  _252
REMARK  103  A    between atoms: _252  and  _253
REMARK  104  A    between atoms: _258  and  _260
REMARK  105  A    between atoms: _260  and  _261
REMARK  106  A    between atoms: _260  and  _263
REMARK  107  A    between atoms: _263  and  _264
REMARK  108  A    between atoms: _267  and  _269
REMARK  109  A    between atoms: _269  and  _270
REMARK  110  A    between atoms: _269  and  _272
REMARK  111  A    between atoms: _272  and  _273
REMARK  112  A    between atoms: _273  and  _274
REMARK  113  A    between atoms: _279  and  _281
REMARK  114  A    between atoms: _281  and  _282
REMARK  115  A    between atoms: _281  and  _284
REMARK  116  A    between atoms: _284  and  _285
REMARK  117  A    between atoms: _288  and  _290
REMARK  118  A    between atoms: _290  and  _291
REMARK  119  A    between atoms: _290  and  _293
REMARK  120  A    between atoms: _293  and  _294
REMARK  121  A    between atoms: _300  and  _302
REMARK  122  A    between atoms: _302  and  _303
REMARK  123  A    between atoms: _302  and  _305
REMARK  124  A    between atoms: _305  and  _306
REMARK  125  A    between atoms: _309  and  _311
REMARK  126  A    between atoms: _311  and  _312
REMARK  127  A    between atoms: _311  and  _314
REMARK  128  A    between atoms: _317  and  _319
REMARK  129  A    between atoms: _319  and  _320
REMARK  130  A    between atoms: _319  and  _322
REMARK  131  A    between atoms: _322  and  _323
REMARK  132  A    between atoms: _328  and  _330
REMARK  133  A    between atoms: _341  and  _344
REMARK  134  A    between atoms: _344  and  _345
REMARK  135  A    between atoms: _345  and  _346
REMARK  136  A    between atoms: _351  and  _354
REMARK  137  A    between atoms: _354  and  _355
REMARK  138  A    between atoms: _365  and  _366
REMARK  139  A    between atoms: _374  and  _376
REMARK  140  A    between atoms: _376  and  _377
REMARK  141  A    between atoms: _376  and  _379
REMARK  142  A    between atoms: _379  and  _380
REMARK  143  A    between atoms: _383  and  _385
REMARK  144  A    between atoms: _385  and  _386
REMARK  145  A    between atoms: _385  and  _388
REMARK  146  A    between atoms: _388  and  _389
REMARK  147  A    between atoms: _394  and  _395
REMARK  148  A    between atoms: _397  and  _399
REMARK  149  A    between atoms: _399  and  _400
REMARK  150  A    between atoms: _399  and  _402
REMARK  151  A    between atoms: _402  and  _403
REMARK  152  A    between atoms: _409  and  _411
REMARK  153  A    between atoms: _411  and  _412
REMARK  154  A    between atoms: _411  and  _414
REMARK  155  A    between atoms: _414  and  _415
REMARK  156  A    between atoms: _420  and  _421
REMARK  157  A    between atoms: _423  and  _425
REMARK  158  A    between atoms: _425  and  _426
REMARK  159  A    between atoms: _425  and  _428
REMARK  160  A    between atoms: _428  and  _429
REMARK  161  A    between atoms: _429  and  _430
REMARK  162  A    between atoms: _430  and  _431
REMARK  163  A    between atoms: _440  and  _442
REMARK  164  A    between atoms: _442  and  _443
REMARK  165  A    between atoms: _442  and  _445
REMARK  166  A    between atoms: _445  and  _446
REMARK  167  A    between atoms: _449  and  _451
REMARK  168  A    between atoms: _451  and  _452
REMARK  169  A    between atoms: _454  and  _456
REMARK  170  A    between atoms: _456  and  _457
REMARK  171  A    between atoms: _456  and  _459
REMARK  172  A    between atoms: _459  and  _460
REMARK  173  A    between atoms: _466  and  _467
REMARK  174  A    between atoms: _472  and  _474
REMARK  175  A    between atoms: _474  and  _475
REMARK  176  A    between atoms: _477  and  _479
REMARK  177  A    between atoms: _479  and  _480
REMARK  178  A    between atoms: _479  and  _482
REMARK  179  A    between atoms: _482  and  _483
REMARK  180  A    between atoms: _489  and  _491
REMARK  181  A    between atoms: _491  and  _492
REMARK  182  A    between atoms: _491  and  _494
REMARK  183  A    between atoms: _494  and  _495
REMARK  184  A    between atoms: _500  and  _502
REMARK  185  A    between atoms: _502  and  _503
REMARK  186  A    between atoms: _502  and  _505
REMARK  187  A    between atoms: _505  and  _506
REMARK  188  A    between atoms: _506  and  _507
REMARK  189  A    between atoms: _507  and  _508
REMARK  190  A    between atoms: _508  and  ZN_790
REMARK  191  A    between atoms: _510  and  _512
REMARK  192  A    between atoms: _512  and  _513
REMARK  193  A    between atoms: _516  and  _518
REMARK  194  A    between atoms: _518  and  _519
REMARK  195  A    between atoms: _521  and  _523
REMARK  196  A    between atoms: _523  and  _524
REMARK  197  A    between atoms: _523  and  _526
REMARK  198  A    between atoms: _526  and  _527
REMARK  199  A    between atoms: _530  and  _532
REMARK  200  A    between atoms: _532  and  _533
REMARK  201  A    between atoms: _532  and  _535
REMARK  202  A    between atoms: _538  and  _540
REMARK  203  A    between atoms: _540  and  _541
REMARK  204  A    between atoms: _540  and  _543
REMARK  205  A    between atoms: _543  and  _544
REMARK  206  A    between atoms: _546  and  _548
REMARK  207  A    between atoms: _548  and  _549
REMARK  208  A    between atoms: _548  and  _551
REMARK  209  A    between atoms: _551  and  _552
REMARK  210  A    between atoms: _555  and  _557
REMARK  211  A    between atoms: _557  and  _558
REMARK  212  A    between atoms: _557  and  _560
REMARK  213  A    between atoms: _560  and  _561
REMARK  214  A    between atoms: _563  and  _565
REMARK  215  A    between atoms: _565  and  _566
REMARK  216  A    between atoms: _565  and  _568
REMARK  217  A    between atoms: _568  and  _569
REMARK  218  A    between atoms: _572  and  _574
REMARK  219  A    between atoms: _574  and  _575
REMARK  220  A    between atoms: _574  and  _577
REMARK  221  A    between atoms: _577  and  _578
REMARK  222  A    between atoms: _578  and  _579
REMARK  223  A    between atoms: _579  and  _580
REMARK  224  A    between atoms: _580  and  _581
REMARK  225  A    between atoms: _585  and  _587
REMARK  226  A    between atoms: _587  and  _588
REMARK  227  A    between atoms: _587  and  _590
REMARK  228  A    between atoms: _590  and  _591
REMARK  229  A    between atoms: _597  and  _599
REMARK  230  A    between atoms: _599  and  _600
REMARK  231  A    between atoms: _599  and  _602
REMARK  232  A    between atoms: _602  and  _603
REMARK  233  A    between atoms: _609  and  _611
REMARK  234  A    between atoms: _611  and  _612
REMARK  235  A    between atoms: _615  and  _617
REMARK  236  A    between atoms: _617  and  _618
REMARK  237  A    between atoms: _617  and  _620
REMARK  238  A    between atoms: _620  and  _621
REMARK  239  A    between atoms: _621  and  _622
REMARK  240  A    between atoms: _624  and  _626
REMARK  241  A    between atoms: _626  and  _627
REMARK  242  A    between atoms: _626  and  _629
REMARK  243  A    between atoms: _629  and  _630
REMARK  244  A    between atoms: _630  and  _631
REMARK  245  A    between atoms: _631  and  _632
REMARK  246  A    between atoms: _632  and  _633
REMARK  247  A    between atoms: _637  and  _639
REMARK  248  A    between atoms: _639  and  _640
REMARK  249  A    between atoms: _639  and  _642
REMARK  250  A    between atoms: _642  and  _643
REMARK  251  A    between atoms: _648  and  _649
REMARK  252  A    between atoms: _651  and  _653
REMARK  253  A    between atoms: _653  and  _654
REMARK  254  A    between atoms: _653  and  _656
REMARK  255  A    between atoms: _656  and  _657
REMARK  256  A    between atoms: _662  and  _664
REMARK  257  A    between atoms: _664  and  _665
REMARK  258  A    between atoms: _664  and  _667
REMARK  259  A    between atoms: _667  and  _668
REMARK  260  A    between atoms: _671  and  _673
REMARK  261  A    between atoms: _673  and  _674
REMARK  262  A    between atoms: _677  and  _679
REMARK  263  A    between atoms: _679  and  _680
REMARK  264  A    between atoms: _679  and  _682
REMARK  265  A    between atoms: _682  and  _683
REMARK  266  A    between atoms: _686  and  _688
REMARK  267  A    between atoms: _688  and  _689
REMARK  268  A    between atoms: _688  and  _691
REMARK  269  A    between atoms: _694  and  _696
REMARK  270  A    between atoms: _696  and  _697
REMARK  271  A    between atoms: _696  and  _699
REMARK  272  A    between atoms: _699  and  _700
REMARK  273  A    between atoms: _700  and  _701
REMARK  274  A    between atoms: _704  and  _706
REMARK  275  A    between atoms: _706  and  _707
REMARK  276  A    between atoms: _706  and  _709
REMARK  277  A    between atoms: _709  and  _710
REMARK  278  A    between atoms: _715  and  _716
REMARK  279  A    between atoms: _718  and  _720
REMARK  280  A    between atoms: _720  and  _721
REMARK  281  A    between atoms: _720  and  _723
REMARK  282  A    between atoms: _723  and  _724
REMARK  283  A    between atoms: _724  and  _725
REMARK  284  A    between atoms: _725  and  _726
REMARK  285  A    between atoms: _735  and  _737
REMARK  286  A    between atoms: _737  and  _738
REMARK  287  A    between atoms: _737  and  _740
REMARK  288  A    between atoms: _740  and  _741
REMARK  289  A    between atoms: _746  and  _747
REMARK  290  A    between atoms: _749  and  _751
REMARK  291  A    between atoms: _751  and  _752
REMARK  292  A    between atoms: _751  and  _754
REMARK  293  A    between atoms: _754  and  _755
REMARK  294  A    between atoms: _758  and  _760
REMARK  295  A    between atoms: _760  and  _761
REMARK  296  A    between atoms: _760  and  _763
REMARK  297  A    between atoms: _763  and  _764
REMARK  298  A    between atoms: _766  and  _768
REMARK  299  A    between atoms: _768  and  _769
REMARK  300  A    between atoms: _768  and  _771
REMARK  301  A    between atoms: _771  and  _772
REMARK  302  A    between atoms: _778  and  _780
REMARK  303  A    between atoms: _780  and  _781
REMARK  304  A    between atoms: _780  and  _783
REMARK  305  A    between atoms: _783  and  _784
REMARK  306  A    between atoms: _784  and  _785
REMARK                            x       y       z     vdW  Elec       q    Type
REMARK                         _______ _______ _______ _____ _____    ______ ____
ROOT
ATOM      1  O   HOH     1      30.657  10.078   4.756  0.00  0.00    +0.000 OA
ENDROOT
TORSDOF 0
REMARK  Name = ../refined-set-2016/4ca7/4ca7_pocket.pdb
REMARK  306 active torsions:
REMARK  status: ('A' for Active; 'I' for Inactive)
REMARK    1  A    between atoms: _1  and  _3
REMARK    2  A    between atoms: _3  and  _4
REMARK    3  A    between atoms: _3  and  _6
REMARK    4  A    between atoms: _6  and  _7
REMARK    5  A    between atoms: _7  and  _8
REMARK    6  A    between atoms: _8  and  _9
REMARK    7  A    between atoms: _9  and  _10
REMARK    8  A    between atoms: _14  and  _16
REMARK    9  A    between atoms: _16  and  _17
REMARK   10  A    between atoms: _16  and  _19
REMARK   11  A    between atoms: _19  and  _20
REMARK   12  A    between atoms: _20  and  _21
REMARK   13  A    between atoms: _24  and  _26
REMARK   14  A    between atoms: _26  and  _27
REMARK   15  A    between atoms: _26  and  _29
REMARK   16  A    between atoms: _29  and  _30
REMARK   17  A    between atoms: _30  and  _31
REMARK   18  A    between atoms: _34  and  _36
REMARK   19  A    between atoms: _36  and  _37
REMARK   20  A    between atoms: _36  and  _39
REMARK   21  A    between atoms: _39  and  _40
REMARK   22  A    between atoms: _45  and  _47
REMARK   23  A    between atoms: _47  and  _48
REMARK   24  A    between atoms: _47  and  _50
REMARK   25  A    between atoms: _50  and  _51
REMARK   26  A    between atoms: _61  and  _63
REMARK   27  A    between atoms: _63  and  _64
REMARK   28  A    between atoms: _63  and  _66
REMARK   29  A    between atoms: _66  and  _67
REMARK   30  A    between atoms: _67  and  _68
REMARK   31  A    between atoms: _73  and  _75
REMARK   32  A    between atoms: _75  and  _76
REMARK   33  A    between atoms: _75  and  _78
REMARK   34  A    between atoms: _78  and  _79
REMARK   35  A    between atoms: _79  and  _80
REMARK   36  A    between atoms: _85  and  _87
REMARK   37  A    between atoms: _87  and  _88
REMARK   38  A    between atoms: _87  and  _90
REMARK   39  A    between atoms: _90  and  _91
REMARK   40  A    between atoms: _93  and  _95
REMARK   41  A    between atoms: _95  and  _96
REMARK   42  A    between atoms: _95  and  _98
REMARK   43  A    between atoms: _101  and  _103
REMARK   44  A    between atoms: _103  and  _104
REMARK   45  A    between atoms: _103  and  _106
REMARK   46  A    between atoms: _108  and  _110
REMARK   47  A    between atoms: _110  and  _111
REMARK   48  A    between atoms: _110  and  _113
REMARK   49  A    between atoms: _113  and  _114
REMARK   50  A    between atoms: _119  and  _121
REMARK   51  A    between atoms: _121  and  _122
REMARK   52  A    between atoms: _125  and  _127
REMARK   53  A    between atoms: _127  and  _128
REMARK   54  A    between atoms: _127  and  _130
REMARK   55  A    between atoms: _130  and  _131
REMARK   56  A    between atoms: _133  and  _135
REMARK   57  A    between atoms: _135  and  _136
REMARK   58  A    between atoms: _139  and  _141
REMARK   59  A    between atoms: _141  and  _142
REMARK   60  A    between atoms: _141  and  _144
REMARK   61  A    between atoms: _144  and  _145
REMARK   62  A    between atoms: _155  and  _157
REMARK   63  A    between atoms: _157  and  _158
REMARK   64  A    between atoms: _157  and  _160
REMARK   65  A    between atoms: _160  and  _161
REMARK   66  A    between atoms: _164  and  _166
REMARK   67  A    between atoms: _166  and  _167
REMARK   68  A    between atoms: _166  and  _169
REMARK   69  A    between atoms: _169  and  _170
REMARK   70  A    between atoms: _175  and  _176
REMARK   71  A    between atoms: _178  and  _180
REMARK   72  A    between atoms: _180  and  _181
REMARK   73  A    between atoms: _180  and  _183
REMARK   74  A    between atoms: _183  and  _184
REMARK   75  A    between atoms: _184  and  _185
REMARK   76  A    between atoms: _185  and  _186
REMARK   77  A    between atoms: _195  and  _197
REMARK   78  A    between atoms: _197  and  _198
REMARK   79  A    between atoms: _197  and  _200
REMARK   80  A    between atoms: _200  and  _201
REMARK   81  A    between atoms: _204  and  _206
REMARK   82  A    between atoms: _206  and  _207
REMARK   83  A    between atoms: _206  and  _209
REMARK   84  A    between atoms: _209  and  _210
REMARK   85  A    between atoms: _210  and  _211
REMARK   86  A    between atoms: _211  and  _212
REMARK   87  A    between atoms: _212  and  _213
REMARK   88  A    between atoms: _217  and  _219
REMARK   89  A    between atoms: _219  and  _220
REMARK   90  A    between atoms: _219  and  _222
REMARK   91  A    between atoms: _222  and  _223
REMARK   92  A    between atoms: _223  and  _224
REMARK   93  A    between atoms: _229  and  _231
REMARK   94  A    between atoms: _231  and  _232
REMARK   95  A    between atoms: _231  and  _234
REMARK   96  A    between atoms: _234  and  _235
REMARK   97  A    between atoms: _235  and  _236
REMARK   98  A    between atoms: _236  and  _237
REMARK   99  A    between atoms: _246  and  _248
REMARK  100  A    between atoms: _248  and  _249
REMARK  101  A    between atoms: _248  and  _251
REMARK  102  A    between atoms: _251  and  _252
REMARK  103  A    between atoms: _252  and  _253
REMARK  104  A    between atoms: _258  and  _260
REMARK  105  A    between atoms: _260  and  _261
REMARK  106  A    between atoms: _260  and  _263
REMARK  107  A    between atoms: _263  and  _264
REMARK  108  A    between atoms: _267  and  _269
REMARK  109  A    between atoms: _269  and  _270
REMARK  110  A    between atoms: _269  and  _272
REMARK  111  A    between atoms: _272  and  _273
REMARK  112  A    between atoms: _273  and  _274
REMARK  113  A    between atoms: _279  and  _281
REMARK  114  A    between atoms: _281  and  _282
REMARK  115  A    between atoms: _281  and  _284
REMARK  116  A    between atoms: _284  and  _285
REMARK  117  A    between atoms: _288  and  _290
REMARK  118  A    between atoms: _290  and  _291
REMARK  119  A    between atoms: _290  and  _293
REMARK  120  A    between atoms: _293  and  _294
REMARK  121  A    between atoms: _300  and  _302
REMARK  122  A    between atoms: _302  and  _303
REMARK  123  A    between atoms: _302  and  _305
REMARK  124  A    between atoms: _305  and  _306
REMARK  125  A    between atoms: _309  and  _311
REMARK  126  A    between atoms: _311  and  _312
REMARK  127  A    between atoms: _311  and  _314
REMARK  128  A    between atoms: _317  and  _319
REMARK  129  A    between atoms: _319  and  _320
REMARK  130  A    between atoms: _319  and  _322
REMARK  131  A    between atoms: _322  and  _323
REMARK  132  A    between atoms: _328  and  _330
REMARK  133  A    between atoms: _341  and  _344
REMARK  134  A    between atoms: _344  and  _345
REMARK  135  A    between atoms: _345  and  _346
REMARK  136  A    between atoms: _351  and  _354
REMARK  137  A    between atoms: _354  and  _355
REMARK  138  A    between atoms: _365  and  _366
REMARK  139  A    between atoms: _374  and  _376
REMARK  140  A    between atoms: _376  and  _377
REMARK  141  A    between atoms: _376  and  _379
REMARK  142  A    between atoms: _379  and  _380
REMARK  143  A    between atoms: _383  and  _385
REMARK  144  A    between atoms: _385  and  _386
REMARK  145  A    between atoms: _385  and  _388
REMARK  146  A    between atoms: _388  and  _389
REMARK  147  A    between atoms: _394  and  _395
REMARK  148  A    between atoms: _397  and  _399
REMARK  149  A    between atoms: _399  and  _400
REMARK  150  A    between atoms: _399  and  _402
REMARK  151  A    between atoms: _402  and  _403
REMARK  152  A    between atoms: _409  and  _411
REMARK  153  A    between atoms: _411  and  _412
REMARK  154  A    between atoms: _411  and  _414
REMARK  155  A    between atoms: _414  and  _415
REMARK  156  A    between atoms: _420  and  _421
REMARK  157  A    between atoms: _423  and  _425
REMARK  158  A    between atoms: _425  and  _426
REMARK  159  A    between atoms: _425  and  _428
REMARK  160  A    between atoms: _428  and  _429
REMARK  161  A    between atoms: _429  and  _430
REMARK  162  A    between atoms: _430  and  _431
REMARK  163  A    between atoms: _440  and  _442
REMARK  164  A    between atoms: _442  and  _443
REMARK  165  A    between atoms: _442  and  _445
REMARK  166  A    between atoms: _445  and  _446
REMARK  167  A    between atoms: _449  and  _451
REMARK  168  A    between atoms: _451  and  _452
REMARK  169  A    between atoms: _454  and  _456
REMARK  170  A    between atoms: _456  and  _457
REMARK  171  A    between atoms: _456  and  _459
REMARK  172  A    between atoms: _459  and  _460
REMARK  173  A    between atoms: _466  and  _467
REMARK  174  A    between atoms: _472  and  _474
REMARK  175  A    between atoms: _474  and  _475
REMARK  176  A    between atoms: _477  and  _479
REMARK  177  A    between atoms: _479  and  _480
REMARK  178  A    between atoms: _479  and  _482
REMARK  179  A    between atoms: _482  and  _483
REMARK  180  A    between atoms: _489  and  _491
REMARK  181  A    between atoms: _491  and  _492
REMARK  182  A    between atoms: _491  and  _494
REMARK  183  A    between atoms: _494  and  _495
REMARK  184  A    between atoms: _500  and  _502
REMARK  185  A    between atoms: _502  and  _503
REMARK  186  A    between atoms: _502  and  _505
REMARK  187  A    between atoms: _505  and  _506
REMARK  188  A    between atoms: _506  and  _507
REMARK  189  A    between atoms: _507  and  _508
REMARK  190  A    between atoms: _508  and  ZN_790
REMARK  191  A    between atoms: _510  and  _512
REMARK  192  A    between atoms: _512  and  _513
REMARK  193  A    between atoms: _516  and  _518
REMARK  194  A    between atoms: _518  and  _519
REMARK  195  A    between atoms: _521  and  _523
REMARK  196  A    between atoms: _523  and  _524
REMARK  197  A    between atoms: _523  and  _526
REMARK  198  A    between atoms: _526  and  _527
REMARK  199  A    between atoms: _530  and  _532
REMARK  200  A    between atoms: _532  and  _533
REMARK  201  A    between atoms: _532  and  _535
REMARK  202  A    between atoms: _538  and  _540
REMARK  203  A    between atoms: _540  and  _541
REMARK  204  A    between atoms: _540  and  _543
REMARK  205  A    between atoms: _543  and  _544
REMARK  206  A    between atoms: _546  and  _548
REMARK  207  A    between atoms: _548  and  _549
REMARK  208  A    between atoms: _548  and  _551
REMARK  209  A    between atoms: _551  and  _552
REMARK  210  A    between atoms: _555  and  _557
REMARK  211  A    between atoms: _557  and  _558
REMARK  212  A    between atoms: _557  and  _560
REMARK  213  A    between atoms: _560  and  _561
REMARK  214  A    between atoms: _563  and  _565
REMARK  215  A    between atoms: _565  and  _566
REMARK  216  A    between atoms: _565  and  _568
REMARK  217  A    between atoms: _568  and  _569
REMARK  218  A    between atoms: _572  and  _574
REMARK  219  A    between atoms: _574  and  _575
REMARK  220  A    between atoms: _574  and  _577
REMARK  221  A    between atoms: _577  and  _578
REMARK  222  A    between atoms: _578  and  _579
REMARK  223  A    between atoms: _579  and  _580
REMARK  224  A    between atoms: _580  and  _581
REMARK  225  A    between atoms: _585  and  _587
REMARK  226  A    between atoms: _587  and  _588
REMARK  227  A    between atoms: _587  and  _590
REMARK  228  A    between atoms: _590  and  _591
REMARK  229  A    between atoms: _597  and  _599
REMARK  230  A    between atoms: _599  and  _600
REMARK  231  A    between atoms: _599  and  _602
REMARK  232  A    between atoms: _602  and  _603
REMARK  233  A    between atoms: _609  and  _611
REMARK  234  A    between atoms: _611  and  _612
REMARK  235  A    between atoms: _615  and  _617
REMARK  236  A    between atoms: _617  and  _618
REMARK  237  A    between atoms: _617  and  _620
REMARK  238  A    between atoms: _620  and  _621
REMARK  239  A    between atoms: _621  and  _622
REMARK  240  A    between atoms: _624  and  _626
REMARK  241  A    between atoms: _626  and  _627
REMARK  242  A    between atoms: _626  and  _629
REMARK  243  A    between atoms: _629  and  _630
REMARK  244  A    between atoms: _630  and  _631
REMARK  245  A    between atoms: _631  and  _632
REMARK  246  A    between atoms: _632  and  _633
REMARK  247  A    between atoms: _637  and  _639
REMARK  248  A    between atoms: _639  and  _640
REMARK  249  A    between atoms: _639  and  _642
REMARK  250  A    between atoms: _642  and  _643
REMARK  251  A    between atoms: _648  and  _649
REMARK  252  A    between atoms: _651  and  _653
REMARK  253  A    between atoms: _653  and  _654
REMARK  254  A    between atoms: _653  and  _656
REMARK  255  A    between atoms: _656  and  _657
REMARK  256  A    between atoms: _662  and  _664
REMARK  257  A    between atoms: _664  and  _665
REMARK  258  A    between atoms: _664  and  _667
REMARK  259  A    between atoms: _667  and  _668
REMARK  260  A    between atoms: _671  and  _673
REMARK  261  A    between atoms: _673  and  _674
REMARK  262  A    between atoms: _677  and  _679
REMARK  263  A    between atoms: _679  and  _680
REMARK  264  A    between atoms: _679  and  _682
REMARK  265  A    between atoms: _682  and  _683
REMARK  266  A    between atoms: _686  and  _688
REMARK  267  A    between atoms: _688  and  _689
REMARK  268  A    between atoms: _688  and  _691
REMARK  269  A    between atoms: _694  and  _696
REMARK  270  A    between atoms: _696  and  _697
REMARK  271  A    between atoms: _696  and  _699
REMARK  272  A    between atoms: _699  and  _700
REMARK  273  A    between atoms: _700  and  _701
REMARK  274  A    between atoms: _704  and  _706
REMARK  275  A    between atoms: _706  and  _707
REMARK  276  A    between atoms: _706  and  _709
REMARK  277  A    between atoms: _709  and  _710
REMARK  278  A    between atoms: _715  and  _716
REMARK  279  A    between atoms: _718  and  _720
REMARK  280  A    between atoms: _720  and  _721
REMARK  281  A    between atoms: _720  and  _723
REMARK  282  A    between atoms: _723  and  _724
REMARK  283  A    between atoms: _724  and  _725
REMARK  284  A    between atoms: _725  and  _726
REMARK  285  A    between atoms: _735  and  _737
REMARK  286  A    between atoms: _737  and  _738
REMARK  287  A    between atoms: _737  and  _740
REMARK  288  A    between atoms: _740  and  _741
REMARK  289  A    between atoms: _746  and  _747
REMARK  290  A    between atoms: _749  and  _751
REMARK  291  A    between atoms: _751  and  _752
REMARK  292  A    between atoms: _751  and  _754
REMARK  293  A    between atoms: _754  and  _755
REMARK  294  A    between atoms: _758  and  _760
REMARK  295  A    between atoms: _760  and  _761
REMARK  296  A    between atoms: _760  and  _763
REMARK  297  A    between atoms: _763  and  _764
REMARK  298  A    between atoms: _766  and  _768
REMARK  299  A    between atoms: _768  and  _769
REMARK  300  A    between atoms: _768  and  _771
REMARK  301  A    between atoms: _771  and  _772
REMARK  302  A    between atoms: _778  and  _780
REMARK  303  A    between atoms: _780  and  _781
REMARK  304  A    between atoms: _780  and  _783
REMARK  305  A    between atoms: _783  and  _784
REMARK  306  A    between atoms: _784  and  _785
REMARK                            x       y       z     vdW  Elec       q    Type
REMARK                         _______ _______ _______ _____ _____    ______ ____
ROOT
ATOM      1  O   HOH     1      28.478   6.802   6.546  0.00  0.00    +0.000 OA
ENDROOT
TORSDOF 0
REMARK  Name = ../refined-set-2016/4ca7/4ca7_pocket.pdb
REMARK  306 active torsions:
REMARK  status: ('A' for Active; 'I' for Inactive)
REMARK    1  A    between atoms: _1  and  _3
REMARK    2  A    between atoms: _3  and  _4
REMARK    3  A    between atoms: _3  and  _6
REMARK    4  A    between atoms: _6  and  _7
REMARK    5  A    between atoms: _7  and  _8
REMARK    6  A    between atoms: _8  and  _9
REMARK    7  A    between atoms: _9  and  _10
REMARK    8  A    between atoms: _14  and  _16
REMARK    9  A    between atoms: _16  and  _17
REMARK   10  A    between atoms: _16  and  _19
REMARK   11  A    between atoms: _19  and  _20
REMARK   12  A    between atoms: _20  and  _21
REMARK   13  A    between atoms: _24  and  _26
REMARK   14  A    between atoms: _26  and  _27
REMARK   15  A    between atoms: _26  and  _29
REMARK   16  A    between atoms: _29  and  _30
REMARK   17  A    between atoms: _30  and  _31
REMARK   18  A    between atoms: _34  and  _36
REMARK   19  A    between atoms: _36  and  _37
REMARK   20  A    between atoms: _36  and  _39
REMARK   21  A    between atoms: _39  and  _40
REMARK   22  A    between atoms: _45  and  _47
REMARK   23  A    between atoms: _47  and  _48
REMARK   24  A    between atoms: _47  and  _50
REMARK   25  A    between atoms: _50  and  _51
REMARK   26  A    between atoms: _61  and  _63
REMARK   27  A    between atoms: _63  and  _64
REMARK   28  A    between atoms: _63  and  _66
REMARK   29  A    between atoms: _66  and  _67
REMARK   30  A    between atoms: _67  and  _68
REMARK   31  A    between atoms: _73  and  _75
REMARK   32  A    between atoms: _75  and  _76
REMARK   33  A    between atoms: _75  and  _78
REMARK   34  A    between atoms: _78  and  _79
REMARK   35  A    between atoms: _79  and  _80
REMARK   36  A    between atoms: _85  and  _87
REMARK   37  A    between atoms: _87  and  _88
REMARK   38  A    between atoms: _87  and  _90
REMARK   39  A    between atoms: _90  and  _91
REMARK   40  A    between atoms: _93  and  _95
REMARK   41  A    between atoms: _95  and  _96
REMARK   42  A    between atoms: _95  and  _98
REMARK   43  A    between atoms: _101  and  _103
REMARK   44  A    between atoms: _103  and  _104
REMARK   45  A    between atoms: _103  and  _106
REMARK   46  A    between atoms: _108  and  _110
REMARK   47  A    between atoms: _110  and  _111
REMARK   48  A    between atoms: _110  and  _113
REMARK   49  A    between atoms: _113  and  _114
REMARK   50  A    between atoms: _119  and  _121
REMARK   51  A    between atoms: _121  and  _122
REMARK   52  A    between atoms: _125  and  _127
REMARK   53  A    between atoms: _127  and  _128
REMARK   54  A    between atoms: _127  and  _130
REMARK   55  A    between atoms: _130  and  _131
REMARK   56  A    between atoms: _133  and  _135
REMARK   57  A    between atoms: _135  and  _136
REMARK   58  A    between atoms: _139  and  _141
REMARK   59  A    between atoms: _141  and  _142
REMARK   60  A    between atoms: _141  and  _144
REMARK   61  A    between atoms: _144  and  _145
REMARK   62  A    between atoms: _155  and  _157
REMARK   63  A    between atoms: _157  and  _158
REMARK   64  A    between atoms: _157  and  _160
REMARK   65  A    between atoms: _160  and  _161
REMARK   66  A    between atoms: _164  and  _166
REMARK   67  A    between atoms: _166  and  _167
REMARK   68  A    between atoms: _166  and  _169
REMARK   69  A    between atoms: _169  and  _170
REMARK   70  A    between atoms: _175  and  _176
REMARK   71  A    between atoms: _178  and  _180
REMARK   72  A    between atoms: _180  and  _181
REMARK   73  A    between atoms: _180  and  _183
REMARK   74  A    between atoms: _183  and  _184
REMARK   75  A    between atoms: _184  and  _185
REMARK   76  A    between atoms: _185  and  _186
REMARK   77  A    between atoms: _195  and  _197
REMARK   78  A    between atoms: _197  and  _198
REMARK   79  A    between atoms: _197  and  _200
REMARK   80  A    between atoms: _200  and  _201
REMARK   81  A    between atoms: _204  and  _206
REMARK   82  A    between atoms: _206  and  _207
REMARK   83  A    between atoms: _206  and  _209
REMARK   84  A    between atoms: _209  and  _210
REMARK   85  A    between atoms: _210  and  _211
REMARK   86  A    between atoms: _211  and  _212
REMARK   87  A    between atoms: _212  and  _213
REMARK   88  A    between atoms: _217  and  _219
REMARK   89  A    between atoms: _219  and  _220
REMARK   90  A    between atoms: _219  and  _222
REMARK   91  A    between atoms: _222  and  _223
REMARK   92  A    between atoms: _223  and  _224
REMARK   93  A    between atoms: _229  and  _231
REMARK   94  A    between atoms: _231  and  _232
REMARK   95  A    between atoms: _231  and  _234
REMARK   96  A    between atoms: _234  and  _235
REMARK   97  A    between atoms: _235  and  _236
REMARK   98  A    between atoms: _236  and  _237
REMARK   99  A    between atoms: _246  and  _248
REMARK  100  A    between atoms: _248  and  _249
REMARK  101  A    between atoms: _248  and  _251
REMARK  102  A    between atoms: _251  and  _252
REMARK  103  A    between atoms: _252  and  _253
REMARK  104  A    between atoms: _258  and  _260
REMARK  105  A    between atoms: _260  and  _261
REMARK  106  A    between atoms: _260  and  _263
REMARK  107  A    between atoms: _263  and  _264
REMARK  108  A    between atoms: _267  and  _269
REMARK  109  A    between atoms: _269  and  _270
REMARK  110  A    between atoms: _269  and  _272
REMARK  111  A    between atoms: _272  and  _273
REMARK  112  A    between atoms: _273  and  _274
REMARK  113  A    between atoms: _279  and  _281
REMARK  114  A    between atoms: _281  and  _282
REMARK  115  A    between atoms: _281  and  _284
REMARK  116  A    between atoms: _284  and  _285
REMARK  117  A    between atoms: _288  and  _290
REMARK  118  A    between atoms: _290  and  _291
REMARK  119  A    between atoms: _290  and  _293
REMARK  120  A    between atoms: _293  and  _294
REMARK  121  A    between atoms: _300  and  _302
REMARK  122  A    between atoms: _302  and  _303
REMARK  123  A    between atoms: _302  and  _305
REMARK  124  A    between atoms: _305  and  _306
REMARK  125  A    between atoms: _309  and  _311
REMARK  126  A    between atoms: _311  and  _312
REMARK  127  A    between atoms: _311  and  _314
REMARK  128  A    between atoms: _317  and  _319
REMARK  129  A    between atoms: _319  and  _320
REMARK  130  A    between atoms: _319  and  _322
REMARK  131  A    between atoms: _322  and  _323
REMARK  132  A    between atoms: _328  and  _330
REMARK  133  A    between atoms: _341  and  _344
REMARK  134  A    between atoms: _344  and  _345
REMARK  135  A    between atoms: _345  and  _346
REMARK  136  A    between atoms: _351  and  _354
REMARK  137  A    between atoms: _354  and  _355
REMARK  138  A    between atoms: _365  and  _366
REMARK  139  A    between atoms: _374  and  _376
REMARK  140  A    between atoms: _376  and  _377
REMARK  141  A    between atoms: _376  and  _379
REMARK  142  A    between atoms: _379  and  _380
REMARK  143  A    between atoms: _383  and  _385
REMARK  144  A    between atoms: _385  and  _386
REMARK  145  A    between atoms: _385  and  _388
REMARK  146  A    between atoms: _388  and  _389
REMARK  147  A    between atoms: _394  and  _395
REMARK  148  A    between atoms: _397  and  _399
REMARK  149  A    between atoms: _399  and  _400
REMARK  150  A    between atoms: _399  and  _402
REMARK  151  A    between atoms: _402  and  _403
REMARK  152  A    between atoms: _409  and  _411
REMARK  153  A    between atoms: _411  and  _412
REMARK  154  A    between atoms: _411  and  _414
REMARK  155  A    between atoms: _414  and  _415
REMARK  156  A    between atoms: _420  and  _421
REMARK  157  A    between atoms: _423  and  _425
REMARK  158  A    between atoms: _425  and  _426
REMARK  159  A    between atoms: _425  and  _428
REMARK  160  A    between atoms: _428  and  _429
REMARK  161  A    between atoms: _429  and  _430
REMARK  162  A    between atoms: _430  and  _431
REMARK  163  A    between atoms: _440  and  _442
REMARK  164  A    between atoms: _442  and  _443
REMARK  165  A    between atoms: _442  and  _445
REMARK  166  A    between atoms: _445  and  _446
REMARK  167  A    between atoms: _449  and  _451
REMARK  168  A    between atoms: _451  and  _452
REMARK  169  A    between atoms: _454  and  _456
REMARK  170  A    between atoms: _456  and  _457
REMARK  171  A    between atoms: _456  and  _459
REMARK  172  A    between atoms: _459  and  _460
REMARK  173  A    between atoms: _466  and  _467
REMARK  174  A    between atoms: _472  and  _474
REMARK  175  A    between atoms: _474  and  _475
REMARK  176  A    between atoms: _477  and  _479
REMARK  177  A    between atoms: _479  and  _480
REMARK  178  A    between atoms: _479  and  _482
REMARK  179  A    between atoms: _482  and  _483
REMARK  180  A    between atoms: _489  and  _491
REMARK  181  A    between atoms: _491  and  _492
REMARK  182  A    between atoms: _491  and  _494
REMARK  183  A    between atoms: _494  and  _495
REMARK  184  A    between atoms: _500  and  _502
REMARK  185  A    between atoms: _502  and  _503
REMARK  186  A    between atoms: _502  and  _505
REMARK  187  A    between atoms: _505  and  _506
REMARK  188  A    between atoms: _506  and  _507
REMARK  189  A    between atoms: _507  and  _508
REMARK  190  A    between atoms: _508  and  ZN_790
REMARK  191  A    between atoms: _510  and  _512
REMARK  192  A    between atoms: _512  and  _513
REMARK  193  A    between atoms: _516  and  _518
REMARK  194  A    between atoms: _518  and  _519
REMARK  195  A    between atoms: _521  and  _523
REMARK  196  A    between atoms: _523  and  _524
REMARK  197  A    between atoms: _523  and  _526
REMARK  198  A    between atoms: _526  and  _527
REMARK  199  A    between atoms: _530  and  _532
REMARK  200  A    between atoms: _532  and  _533
REMARK  201  A    between atoms: _532  and  _535
REMARK  202  A    between atoms: _538  and  _540
REMARK  203  A    between atoms: _540  and  _541
REMARK  204  A    between atoms: _540  and  _543
REMARK  205  A    between atoms: _543  and  _544
REMARK  206  A    between atoms: _546  and  _548
REMARK  207  A    between atoms: _548  and  _549
REMARK  208  A    between atoms: _548  and  _551
REMARK  209  A    between atoms: _551  and  _552
REMARK  210  A    between atoms: _555  and  _557
REMARK  211  A    between atoms: _557  and  _558
REMARK  212  A    between atoms: _557  and  _560
REMARK  213  A    between atoms: _560  and  _561
REMARK  214  A    between atoms: _563  and  _565
REMARK  215  A    between atoms: _565  and  _566
REMARK  216  A    between atoms: _565  and  _568
REMARK  217  A    between atoms: _568  and  _569
REMARK  218  A    between atoms: _572  and  _574
REMARK  219  A    between atoms: _574  and  _575
REMARK  220  A    between atoms: _574  and  _577
REMARK  221  A    between atoms: _577  and  _578
REMARK  222  A    between atoms: _578  and  _579
REMARK  223  A    between atoms: _579  and  _580
REMARK  224  A    between atoms: _580  and  _581
REMARK  225  A    between atoms: _585  and  _587
REMARK  226  A    between atoms: _587  and  _588
REMARK  227  A    between atoms: _587  and  _590
REMARK  228  A    between atoms: _590  and  _591
REMARK  229  A    between atoms: _597  and  _599
REMARK  230  A    between atoms: _599  and  _600
REMARK  231  A    between atoms: _599  and  _602
REMARK  232  A    between atoms: _602  and  _603
REMARK  233  A    between atoms: _609  and  _611
REMARK  234  A    between atoms: _611  and  _612
REMARK  235  A    between atoms: _615  and  _617
REMARK  236  A    between atoms: _617  and  _618
REMARK  237  A    between atoms: _617  and  _620
REMARK  238  A    between atoms: _620  and  _621
REMARK  239  A    between atoms: _621  and  _622
REMARK  240  A    between atoms: _624  and  _626
REMARK  241  A    between atoms: _626  and  _627
REMARK  242  A    between atoms: _626  and  _629
REMARK  243  A    between atoms: _629  and  _630
REMARK  244  A    between atoms: _630  and  _631
REMARK  245  A    between atoms: _631  and  _632
REMARK  246  A    between atoms: _632  and  _633
REMARK  247  A    between atoms: _637  and  _639
REMARK  248  A    between atoms: _639  and  _640
REMARK  249  A    between atoms: _639  and  _642
REMARK  250  A    between atoms: _642  and  _643
REMARK  251  A    between atoms: _648  and  _649
REMARK  252  A    between atoms: _651  and  _653
REMARK  253  A    between atoms: _653  and  _654
REMARK  254  A    between atoms: _653  and  _656
REMARK  255  A    between atoms: _656  and  _657
REMARK  256  A    between atoms: _662  and  _664
REMARK  257  A    between atoms: _664  and  _665
REMARK  258  A    between atoms: _664  and  _667
REMARK  259  A    between atoms: _667  and  _668
REMARK  260  A    between atoms: _671  and  _673
REMARK  261  A    between atoms: _673  and  _674
REMARK  262  A    between atoms: _677  and  _679
REMARK  263  A    between atoms: _679  and  _680
REMARK  264  A    between atoms: _679  and  _682
REMARK  265  A    between atoms: _682  and  _683
REMARK  266  A    between atoms: _686  and  _688
REMARK  267  A    between atoms: _688  and  _689
REMARK  268  A    between atoms: _688  and  _691
REMARK  269  A    between atoms: _694  and  _696
REMARK  270  A    between atoms: _696  and  _697
REMARK  271  A    between atoms: _696  and  _699
REMARK  272  A    between atoms: _699  and  _700
REMARK  273  A    between atoms: _700  and  _701
REMARK  274  A    between atoms: _704  and  _706
REMARK  275  A    between atoms: _706  and  _707
REMARK  276  A    between atoms: _706  and  _709
REMARK  277  A    between atoms: _709  and  _710
REMARK  278  A    between atoms: _715  and  _716
REMARK  279  A    between atoms: _718  and  _720
REMARK  280  A    between atoms: _720  and  _721
REMARK  281  A    between atoms: _720  and  _723
REMARK  282  A    between atoms: _723  and  _724
REMARK  283  A    between atoms: _724  and  _725
REMARK  284  A    between atoms: _725  and  _726
REMARK  285  A    between atoms: _735  and  _737
REMARK  286  A    between atoms: _737  and  _738
REMARK  287  A    between atoms: _737  and  _740
REMARK  288  A    between atoms: _740  and  _741
REMARK  289  A    between atoms: _746  and  _747
REMARK  290  A    between atoms: _749  and  _751
REMARK  291  A    between atoms: _751  and  _752
REMARK  292  A    between atoms: _751  and  _754
REMARK  293  A    between atoms: _754  and  _755
REMARK  294  A    between atoms: _758  and  _760
REMARK  295  A    between atoms: _760  and  _761
REMARK  296  A    between atoms: _760  and  _763
REMARK  297  A    between atoms: _763  and  _764
REMARK  298  A    between atoms: _766  and  _768
REMARK  299  A    between atoms: _768  and  _769
REMARK  300  A    between atoms: _768  and  _771
REMARK  301  A    between atoms: _771  and  _772
REMARK  302  A    between atoms: _778  and  _780
REMARK  303  A    between atoms: _780  and  _781
REMARK  304  A    between atoms: _780  and  _783
REMARK  305  A    between atoms: _783  and  _784
REMARK  306  A    between atoms: _784  and  _785
REMARK                            x       y       z     vdW  Elec       q    Type
REMARK                         _______ _______ _______ _____ _____    ______ ____
ROOT
ATOM      1  O   HOH     1      25.459   7.318   4.418  0.00  0.00    +0.000 OA
ENDROOT
TORSDOF 0
REMARK  Name = ../refined-set-2016/4ca7/4ca7_pocket.pdb
REMARK  306 active torsions:
REMARK  status: ('A' for Active; 'I' for Inactive)
REMARK    1  A    between atoms: _1  and  _3
REMARK    2  A    between atoms: _3  and  _4
REMARK    3  A    between atoms: _3  and  _6
REMARK    4  A    between atoms: _6  and  _7
REMARK    5  A    between atoms: _7  and  _8
REMARK    6  A    between atoms: _8  and  _9
REMARK    7  A    between atoms: _9  and  _10
REMARK    8  A    between atoms: _14  and  _16
REMARK    9  A    between atoms: _16  and  _17
REMARK   10  A    between atoms: _16  and  _19
REMARK   11  A    between atoms: _19  and  _20
REMARK   12  A    between atoms: _20  and  _21
REMARK   13  A    between atoms: _24  and  _26
REMARK   14  A    between atoms: _26  and  _27
REMARK   15  A    between atoms: _26  and  _29
REMARK   16  A    between atoms: _29  and  _30
REMARK   17  A    between atoms: _30  and  _31
REMARK   18  A    between atoms: _34  and  _36
REMARK   19  A    between atoms: _36  and  _37
REMARK   20  A    between atoms: _36  and  _39
REMARK   21  A    between atoms: _39  and  _40
REMARK   22  A    between atoms: _45  and  _47
REMARK   23  A    between atoms: _47  and  _48
REMARK   24  A    between atoms: _47  and  _50
REMARK   25  A    between atoms: _50  and  _51
REMARK   26  A    between atoms: _61  and  _63
REMARK   27  A    between atoms: _63  and  _64
REMARK   28  A    between atoms: _63  and  _66
REMARK   29  A    between atoms: _66  and  _67
REMARK   30  A    between atoms: _67  and  _68
REMARK   31  A    between atoms: _73  and  _75
REMARK   32  A    between atoms: _75  and  _76
REMARK   33  A    between atoms: _75  and  _78
REMARK   34  A    between atoms: _78  and  _79
REMARK   35  A    between atoms: _79  and  _80
REMARK   36  A    between atoms: _85  and  _87
REMARK   37  A    between atoms: _87  and  _88
REMARK   38  A    between atoms: _87  and  _90
REMARK   39  A    between atoms: _90  and  _91
REMARK   40  A    between atoms: _93  and  _95
REMARK   41  A    between atoms: _95  and  _96
REMARK   42  A    between atoms: _95  and  _98
REMARK   43  A    between atoms: _101  and  _103
REMARK   44  A    between atoms: _103  and  _104
REMARK   45  A    between atoms: _103  and  _106
REMARK   46  A    between atoms: _108  and  _110
REMARK   47  A    between atoms: _110  and  _111
REMARK   48  A    between atoms: _110  and  _113
REMARK   49  A    between atoms: _113  and  _114
REMARK   50  A    between atoms: _119  and  _121
REMARK   51  A    between atoms: _121  and  _122
REMARK   52  A    between atoms: _125  and  _127
REMARK   53  A    between atoms: _127  and  _128
REMARK   54  A    between atoms: _127  and  _130
REMARK   55  A    between atoms: _130  and  _131
REMARK   56  A    between atoms: _133  and  _135
REMARK   57  A    between atoms: _135  and  _136
REMARK   58  A    between atoms: _139  and  _141
REMARK   59  A    between atoms: _141  and  _142
REMARK   60  A    between atoms: _141  and  _144
REMARK   61  A    between atoms: _144  and  _145
REMARK   62  A    between atoms: _155  and  _157
REMARK   63  A    between atoms: _157  and  _158
REMARK   64  A    between atoms: _157  and  _160
REMARK   65  A    between atoms: _160  and  _161
REMARK   66  A    between atoms: _164  and  _166
REMARK   67  A    between atoms: _166  and  _167
REMARK   68  A    between atoms: _166  and  _169
REMARK   69  A    between atoms: _169  and  _170
REMARK   70  A    between atoms: _175  and  _176
REMARK   71  A    between atoms: _178  and  _180
REMARK   72  A    between atoms: _180  and  _181
REMARK   73  A    between atoms: _180  and  _183
REMARK   74  A    between atoms: _183  and  _184
REMARK   75  A    between atoms: _184  and  _185
REMARK   76  A    between atoms: _185  and  _186
REMARK   77  A    between atoms: _195  and  _197
REMARK   78  A    between atoms: _197  and  _198
REMARK   79  A    between atoms: _197  and  _200
REMARK   80  A    between atoms: _200  and  _201
REMARK   81  A    between atoms: _204  and  _206
REMARK   82  A    between atoms: _206  and  _207
REMARK   83  A    between atoms: _206  and  _209
REMARK   84  A    between atoms: _209  and  _210
REMARK   85  A    between atoms: _210  and  _211
REMARK   86  A    between atoms: _211  and  _212
REMARK   87  A    between atoms: _212  and  _213
REMARK   88  A    between atoms: _217  and  _219
REMARK   89  A    between atoms: _219  and  _220
REMARK   90  A    between atoms: _219  and  _222
REMARK   91  A    between atoms: _222  and  _223
REMARK   92  A    between atoms: _223  and  _224
REMARK   93  A    between atoms: _229  and  _231
REMARK   94  A    between atoms: _231  and  _232
REMARK   95  A    between atoms: _231  and  _234
REMARK   96  A    between atoms: _234  and  _235
REMARK   97  A    between atoms: _235  and  _236
REMARK   98  A    between atoms: _236  and  _237
REMARK   99  A    between atoms: _246  and  _248
REMARK  100  A    between atoms: _248  and  _249
REMARK  101  A    between atoms: _248  and  _251
REMARK  102  A    between atoms: _251  and  _252
REMARK  103  A    between atoms: _252  and  _253
REMARK  104  A    between atoms: _258  and  _260
REMARK  105  A    between atoms: _260  and  _261
REMARK  106  A    between atoms: _260  and  _263
REMARK  107  A    between atoms: _263  and  _264
REMARK  108  A    between atoms: _267  and  _269
REMARK  109  A    between atoms: _269  and  _270
REMARK  110  A    between atoms: _269  and  _272
REMARK  111  A    between atoms: _272  and  _273
REMARK  112  A    between atoms: _273  and  _274
REMARK  113  A    between atoms: _279  and  _281
REMARK  114  A    between atoms: _281  and  _282
REMARK  115  A    between atoms: _281  and  _284
REMARK  116  A    between atoms: _284  and  _285
REMARK  117  A    between atoms: _288  and  _290
REMARK  118  A    between atoms: _290  and  _291
REMARK  119  A    between atoms: _290  and  _293
REMARK  120  A    between atoms: _293  and  _294
REMARK  121  A    between atoms: _300  and  _302
REMARK  122  A    between atoms: _302  and  _303
REMARK  123  A    between atoms: _302  and  _305
REMARK  124  A    between atoms: _305  and  _306
REMARK  125  A    between atoms: _309  and  _311
REMARK  126  A    between atoms: _311  and  _312
REMARK  127  A    between atoms: _311  and  _314
REMARK  128  A    between atoms: _317  and  _319
REMARK  129  A    between atoms: _319  and  _320
REMARK  130  A    between atoms: _319  and  _322
REMARK  131  A    between atoms: _322  and  _323
REMARK  132  A    between atoms: _328  and  _330
REMARK  133  A    between atoms: _341  and  _344
REMARK  134  A    between atoms: _344  and  _345
REMARK  135  A    between atoms: _345  and  _346
REMARK  136  A    between atoms: _351  and  _354
REMARK  137  A    between atoms: _354  and  _355
REMARK  138  A    between atoms: _365  and  _366
REMARK  139  A    between atoms: _374  and  _376
REMARK  140  A    between atoms: _376  and  _377
REMARK  141  A    between atoms: _376  and  _379
REMARK  142  A    between atoms: _379  and  _380
REMARK  143  A    between atoms: _383  and  _385
REMARK  144  A    between atoms: _385  and  _386
REMARK  145  A    between atoms: _385  and  _388
REMARK  146  A    between atoms: _388  and  _389
REMARK  147  A    between atoms: _394  and  _395
REMARK  148  A    between atoms: _397  and  _399
REMARK  149  A    between atoms: _399  and  _400
REMARK  150  A    between atoms: _399  and  _402
REMARK  151  A    between atoms: _402  and  _403
REMARK  152  A    between atoms: _409  and  _411
REMARK  153  A    between atoms: _411  and  _412
REMARK  154  A    between atoms: _411  and  _414
REMARK  155  A    between atoms: _414  and  _415
REMARK  156  A    between atoms: _420  and  _421
REMARK  157  A    between atoms: _423  and  _425
REMARK  158  A    between atoms: _425  and  _426
REMARK  159  A    between atoms: _425  and  _428
REMARK  160  A    between atoms: _428  and  _429
REMARK  161  A    between atoms: _429  and  _430
REMARK  162  A    between atoms: _430  and  _431
REMARK  163  A    between atoms: _440  and  _442
REMARK  164  A    between atoms: _442  and  _443
REMARK  165  A    between atoms: _442  and  _445
REMARK  166  A    between atoms: _445  and  _446
REMARK  167  A    between atoms: _449  and  _451
REMARK  168  A    between atoms: _451  and  _452
REMARK  169  A    between atoms: _454  and  _456
REMARK  170  A    between atoms: _456  and  _457
REMARK  171  A    between atoms: _456  and  _459
REMARK  172  A    between atoms: _459  and  _460
REMARK  173  A    between atoms: _466  and  _467
REMARK  174  A    between atoms: _472  and  _474
REMARK  175  A    between atoms: _474  and  _475
REMARK  176  A    between atoms: _477  and  _479
REMARK  177  A    between atoms: _479  and  _480
REMARK  178  A    between atoms: _479  and  _482
REMARK  179  A    between atoms: _482  and  _483
REMARK  180  A    between atoms: _489  and  _491
REMARK  181  A    between atoms: _491  and  _492
REMARK  182  A    between atoms: _491  and  _494
REMARK  183  A    between atoms: _494  and  _495
REMARK  184  A    between atoms: _500  and  _502
REMARK  185  A    between atoms: _502  and  _503
REMARK  186  A    between atoms: _502  and  _505
REMARK  187  A    between atoms: _505  and  _506
REMARK  188  A    between atoms: _506  and  _507
REMARK  189  A    between atoms: _507  and  _508
REMARK  190  A    between atoms: _508  and  ZN_790
REMARK  191  A    between atoms: _510  and  _512
REMARK  192  A    between atoms: _512  and  _513
REMARK  193  A    between atoms: _516  and  _518
REMARK  194  A    between atoms: _518  and  _519
REMARK  195  A    between atoms: _521  and  _523
REMARK  196  A    between atoms: _523  and  _524
REMARK  197  A    between atoms: _523  and  _526
REMARK  198  A    between atoms: _526  and  _527
REMARK  199  A    between atoms: _530  and  _532
REMARK  200  A    between atoms: _532  and  _533
REMARK  201  A    between atoms: _532  and  _535
REMARK  202  A    between atoms: _538  and  _540
REMARK  203  A    between atoms: _540  and  _541
REMARK  204  A    between atoms: _540  and  _543
REMARK  205  A    between atoms: _543  and  _544
REMARK  206  A    between atoms: _546  and  _548
REMARK  207  A    between atoms: _548  and  _549
REMARK  208  A    between atoms: _548  and  _551
REMARK  209  A    between atoms: _551  and  _552
REMARK  210  A    between atoms: _555  and  _557
REMARK  211  A    between atoms: _557  and  _558
REMARK  212  A    between atoms: _557  and  _560
REMARK  213  A    between atoms: _560  and  _561
REMARK  214  A    between atoms: _563  and  _565
REMARK  215  A    between atoms: _565  and  _566
REMARK  216  A    between atoms: _565  and  _568
REMARK  217  A    between atoms: _568  and  _569
REMARK  218  A    between atoms: _572  and  _574
REMARK  219  A    between atoms: _574  and  _575
REMARK  220  A    between atoms: _574  and  _577
REMARK  221  A    between atoms: _577  and  _578
REMARK  222  A    between atoms: _578  and  _579
REMARK  223  A    between atoms: _579  and  _580
REMARK  224  A    between atoms: _580  and  _581
REMARK  225  A    between atoms: _585  and  _587
REMARK  226  A    between atoms: _587  and  _588
REMARK  227  A    between atoms: _587  and  _590
REMARK  228  A    between atoms: _590  and  _591
REMARK  229  A    between atoms: _597  and  _599
REMARK  230  A    between atoms: _599  and  _600
REMARK  231  A    between atoms: _599  and  _602
REMARK  232  A    between atoms: _602  and  _603
REMARK  233  A    between atoms: _609  and  _611
REMARK  234  A    between atoms: _611  and  _612
REMARK  235  A    between atoms: _615  and  _617
REMARK  236  A    between atoms: _617  and  _618
REMARK  237  A    between atoms: _617  and  _620
REMARK  238  A    between atoms: _620  and  _621
REMARK  239  A    between atoms: _621  and  _622
REMARK  240  A    between atoms: _624  and  _626
REMARK  241  A    between atoms: _626  and  _627
REMARK  242  A    between atoms: _626  and  _629
REMARK  243  A    between atoms: _629  and  _630
REMARK  244  A    between atoms: _630  and  _631
REMARK  245  A    between atoms: _631  and  _632
REMARK  246  A    between atoms: _632  and  _633
REMARK  247  A    between atoms: _637  and  _639
REMARK  248  A    between atoms: _639  and  _640
REMARK  249  A    between atoms: _639  and  _642
REMARK  250  A    between atoms: _642  and  _643
REMARK  251  A    between atoms: _648  and  _649
REMARK  252  A    between atoms: _651  and  _653
REMARK  253  A    between atoms: _653  and  _654
REMARK  254  A    between atoms: _653  and  _656
REMARK  255  A    between atoms: _656  and  _657
REMARK  256  A    between atoms: _662  and  _664
REMARK  257  A    between atoms: _664  and  _665
REMARK  258  A    between atoms: _664  and  _667
REMARK  259  A    between atoms: _667  and  _668
REMARK  260  A    between atoms: _671  and  _673
REMARK  261  A    between atoms: _673  and  _674
REMARK  262  A    between atoms: _677  and  _679
REMARK  263  A    between atoms: _679  and  _680
REMARK  264  A    between atoms: _679  and  _682
REMARK  265  A    between atoms: _682  and  _683
REMARK  266  A    between atoms: _686  and  _688
REMARK  267  A    between atoms: _688  and  _689
REMARK  268  A    between atoms: _688  and  _691
REMARK  269  A    between atoms: _694  and  _696
REMARK  270  A    between atoms: _696  and  _697
REMARK  271  A    between atoms: _696  and  _699
REMARK  272  A    between atoms: _699  and  _700
REMARK  273  A    between atoms: _700  and  _701
REMARK  274  A    between atoms: _704  and  _706
REMARK  275  A    between atoms: _706  and  _707
REMARK  276  A    between atoms: _706  and  _709
REMARK  277  A    between atoms: _709  and  _710
REMARK  278  A    between atoms: _715  and  _716
REMARK  279  A    between atoms: _718  and  _720
REMARK  280  A    between atoms: _720  and  _721
REMARK  281  A    between atoms: _720  and  _723
REMARK  282  A    between atoms: _723  and  _724
REMARK  283  A    between atoms: _724  and  _725
REMARK  284  A    between atoms: _725  and  _726
REMARK  285  A    between atoms: _735  and  _737
REMARK  286  A    between atoms: _737  and  _738
REMARK  287  A    between atoms: _737  and  _740
REMARK  288  A    between atoms: _740  and  _741
REMARK  289  A    between atoms: _746  and  _747
REMARK  290  A    between atoms: _749  and  _751
REMARK  291  A    between atoms: _751  and  _752
REMARK  292  A    between atoms: _751  and  _754
REMARK  293  A    between atoms: _754  and  _755
REMARK  294  A    between atoms: _758  and  _760
REMARK  295  A    between atoms: _760  and  _761
REMARK  296  A    between atoms: _760  and  _763
REMARK  297  A    between atoms: _763  and  _764
REMARK  298  A    between atoms: _766  and  _768
REMARK  299  A    between atoms: _768  and  _769
REMARK  300  A    between atoms: _768  and  _771
REMARK  301  A    between atoms: _771  and  _772
REMARK  302  A    between atoms: _778  and  _780
REMARK  303  A    between atoms: _780  and  _781
REMARK  304  A    between atoms: _780  and  _783
REMARK  305  A    between atoms: _783  and  _784
REMARK  306  A    between atoms: _784  and  _785
REMARK                            x       y       z     vdW  Elec       q    Type
REMARK                         _______ _______ _______ _____ _____    ______ ____
ROOT
ATOM      1  O   HOH     1      24.203   6.891   9.271  0.00  0.00    +0.000 OA
ENDROOT
TORSDOF 0
REMARK  Name = ../refined-set-2016/4ca7/4ca7_pocket.pdb
REMARK  306 active torsions:
REMARK  status: ('A' for Active; 'I' for Inactive)
REMARK    1  A    between atoms: _1  and  _3
REMARK    2  A    between atoms: _3  and  _4
REMARK    3  A    between atoms: _3  and  _6
REMARK    4  A    between atoms: _6  and  _7
REMARK    5  A    between atoms: _7  and  _8
REMARK    6  A    between atoms: _8  and  _9
REMARK    7  A    between atoms: _9  and  _10
REMARK    8  A    between atoms: _14  and  _16
REMARK    9  A    between atoms: _16  and  _17
REMARK   10  A    between atoms: _16  and  _19
REMARK   11  A    between atoms: _19  and  _20
REMARK   12  A    between atoms: _20  and  _21
REMARK   13  A    between atoms: _24  and  _26
REMARK   14  A    between atoms: _26  and  _27
REMARK   15  A    between atoms: _26  and  _29
REMARK   16  A    between atoms: _29  and  _30
REMARK   17  A    between atoms: _30  and  _31
REMARK   18  A    between atoms: _34  and  _36
REMARK   19  A    between atoms: _36  and  _37
REMARK   20  A    between atoms: _36  and  _39
REMARK   21  A    between atoms: _39  and  _40
REMARK   22  A    between atoms: _45  and  _47
REMARK   23  A    between atoms: _47  and  _48
REMARK   24  A    between atoms: _47  and  _50
REMARK   25  A    between atoms: _50  and  _51
REMARK   26  A    between atoms: _61  and  _63
REMARK   27  A    between atoms: _63  and  _64
REMARK   28  A    between atoms: _63  and  _66
REMARK   29  A    between atoms: _66  and  _67
REMARK   30  A    between atoms: _67  and  _68
REMARK   31  A    between atoms: _73  and  _75
REMARK   32  A    between atoms: _75  and  _76
REMARK   33  A    between atoms: _75  and  _78
REMARK   34  A    between atoms: _78  and  _79
REMARK   35  A    between atoms: _79  and  _80
REMARK   36  A    between atoms: _85  and  _87
REMARK   37  A    between atoms: _87  and  _88
REMARK   38  A    between atoms: _87  and  _90
REMARK   39  A    between atoms: _90  and  _91
REMARK   40  A    between atoms: _93  and  _95
REMARK   41  A    between atoms: _95  and  _96
REMARK   42  A    between atoms: _95  and  _98
REMARK   43  A    between atoms: _101  and  _103
REMARK   44  A    between atoms: _103  and  _104
REMARK   45  A    between atoms: _103  and  _106
REMARK   46  A    between atoms: _108  and  _110
REMARK   47  A    between atoms: _110  and  _111
REMARK   48  A    between atoms: _110  and  _113
REMARK   49  A    between atoms: _113  and  _114
REMARK   50  A    between atoms: _119  and  _121
REMARK   51  A    between atoms: _121  and  _122
REMARK   52  A    between atoms: _125  and  _127
REMARK   53  A    between atoms: _127  and  _128
REMARK   54  A    between atoms: _127  and  _130
REMARK   55  A    between atoms: _130  and  _131
REMARK   56  A    between atoms: _133  and  _135
REMARK   57  A    between atoms: _135  and  _136
REMARK   58  A    between atoms: _139  and  _141
REMARK   59  A    between atoms: _141  and  _142
REMARK   60  A    between atoms: _141  and  _144
REMARK   61  A    between atoms: _144  and  _145
REMARK   62  A    between atoms: _155  and  _157
REMARK   63  A    between atoms: _157  and  _158
REMARK   64  A    between atoms: _157  and  _160
REMARK   65  A    between atoms: _160  and  _161
REMARK   66  A    between atoms: _164  and  _166
REMARK   67  A    between atoms: _166  and  _167
REMARK   68  A    between atoms: _166  and  _169
REMARK   69  A    between atoms: _169  and  _170
REMARK   70  A    between atoms: _175  and  _176
REMARK   71  A    between atoms: _178  and  _180
REMARK   72  A    between atoms: _180  and  _181
REMARK   73  A    between atoms: _180  and  _183
REMARK   74  A    between atoms: _183  and  _184
REMARK   75  A    between atoms: _184  and  _185
REMARK   76  A    between atoms: _185  and  _186
REMARK   77  A    between atoms: _195  and  _197
REMARK   78  A    between atoms: _197  and  _198
REMARK   79  A    between atoms: _197  and  _200
REMARK   80  A    between atoms: _200  and  _201
REMARK   81  A    between atoms: _204  and  _206
REMARK   82  A    between atoms: _206  and  _207
REMARK   83  A    between atoms: _206  and  _209
REMARK   84  A    between atoms: _209  and  _210
REMARK   85  A    between atoms: _210  and  _211
REMARK   86  A    between atoms: _211  and  _212
REMARK   87  A    between atoms: _212  and  _213
REMARK   88  A    between atoms: _217  and  _219
REMARK   89  A    between atoms: _219  and  _220
REMARK   90  A    between atoms: _219  and  _222
REMARK   91  A    between atoms: _222  and  _223
REMARK   92  A    between atoms: _223  and  _224
REMARK   93  A    between atoms: _229  and  _231
REMARK   94  A    between atoms: _231  and  _232
REMARK   95  A    between atoms: _231  and  _234
REMARK   96  A    between atoms: _234  and  _235
REMARK   97  A    between atoms: _235  and  _236
REMARK   98  A    between atoms: _236  and  _237
REMARK   99  A    between atoms: _246  and  _248
REMARK  100  A    between atoms: _248  and  _249
REMARK  101  A    between atoms: _248  and  _251
REMARK  102  A    between atoms: _251  and  _252
REMARK  103  A    between atoms: _252  and  _253
REMARK  104  A    between atoms: _258  and  _260
REMARK  105  A    between atoms: _260  and  _261
REMARK  106  A    between atoms: _260  and  _263
REMARK  107  A    between atoms: _263  and  _264
REMARK  108  A    between atoms: _267  and  _269
REMARK  109  A    between atoms: _269  and  _270
REMARK  110  A    between atoms: _269  and  _272
REMARK  111  A    between atoms: _272  and  _273
REMARK  112  A    between atoms: _273  and  _274
REMARK  113  A    between atoms: _279  and  _281
REMARK  114  A    between atoms: _281  and  _282
REMARK  115  A    between atoms: _281  and  _284
REMARK  116  A    between atoms: _284  and  _285
REMARK  117  A    between atoms: _288  and  _290
REMARK  118  A    between atoms: _290  and  _291
REMARK  119  A    between atoms: _290  and  _293
REMARK  120  A    between atoms: _293  and  _294
REMARK  121  A    between atoms: _300  and  _302
REMARK  122  A    between atoms: _302  and  _303
REMARK  123  A    between atoms: _302  and  _305
REMARK  124  A    between atoms: _305  and  _306
REMARK  125  A    between atoms: _309  and  _311
REMARK  126  A    between atoms: _311  and  _312
REMARK  127  A    between atoms: _311  and  _314
REMARK  128  A    between atoms: _317  and  _319
REMARK  129  A    between atoms: _319  and  _320
REMARK  130  A    between atoms: _319  and  _322
REMARK  131  A    between atoms: _322  and  _323
REMARK  132  A    between atoms: _328  and  _330
REMARK  133  A    between atoms: _341  and  _344
REMARK  134  A    between atoms: _344  and  _345
REMARK  135  A    between atoms: _345  and  _346
REMARK  136  A    between atoms: _351  and  _354
REMARK  137  A    between atoms: _354  and  _355
REMARK  138  A    between atoms: _365  and  _366
REMARK  139  A    between atoms: _374  and  _376
REMARK  140  A    between atoms: _376  and  _377
REMARK  141  A    between atoms: _376  and  _379
REMARK  142  A    between atoms: _379  and  _380
REMARK  143  A    between atoms: _383  and  _385
REMARK  144  A    between atoms: _385  and  _386
REMARK  145  A    between atoms: _385  and  _388
REMARK  146  A    between atoms: _388  and  _389
REMARK  147  A    between atoms: _394  and  _395
REMARK  148  A    between atoms: _397  and  _399
REMARK  149  A    between atoms: _399  and  _400
REMARK  150  A    between atoms: _399  and  _402
REMARK  151  A    between atoms: _402  and  _403
REMARK  152  A    between atoms: _409  and  _411
REMARK  153  A    between atoms: _411  and  _412
REMARK  154  A    between atoms: _411  and  _414
REMARK  155  A    between atoms: _414  and  _415
REMARK  156  A    between atoms: _420  and  _421
REMARK  157  A    between atoms: _423  and  _425
REMARK  158  A    between atoms: _425  and  _426
REMARK  159  A    between atoms: _425  and  _428
REMARK  160  A    between atoms: _428  and  _429
REMARK  161  A    between atoms: _429  and  _430
REMARK  162  A    between atoms: _430  and  _431
REMARK  163  A    between atoms: _440  and  _442
REMARK  164  A    between atoms: _442  and  _443
REMARK  165  A    between atoms: _442  and  _445
REMARK  166  A    between atoms: _445  and  _446
REMARK  167  A    between atoms: _449  and  _451
REMARK  168  A    between atoms: _451  and  _452
REMARK  169  A    between atoms: _454  and  _456
REMARK  170  A    between atoms: _456  and  _457
REMARK  171  A    between atoms: _456  and  _459
REMARK  172  A    between atoms: _459  and  _460
REMARK  173  A    between atoms: _466  and  _467
REMARK  174  A    between atoms: _472  and  _474
REMARK  175  A    between atoms: _474  and  _475
REMARK  176  A    between atoms: _477  and  _479
REMARK  177  A    between atoms: _479  and  _480
REMARK  178  A    between atoms: _479  and  _482
REMARK  179  A    between atoms: _482  and  _483
REMARK  180  A    between atoms: _489  and  _491
REMARK  181  A    between atoms: _491  and  _492
REMARK  182  A    between atoms: _491  and  _494
REMARK  183  A    between atoms: _494  and  _495
REMARK  184  A    between atoms: _500  and  _502
REMARK  185  A    between atoms: _502  and  _503
REMARK  186  A    between atoms: _502  and  _505
REMARK  187  A    between atoms: _505  and  _506
REMARK  188  A    between atoms: _506  and  _507
REMARK  189  A    between atoms: _507  and  _508
REMARK  190  A    between atoms: _508  and  ZN_790
REMARK  191  A    between atoms: _510  and  _512
REMARK  192  A    between atoms: _512  and  _513
REMARK  193  A    between atoms: _516  and  _518
REMARK  194  A    between atoms: _518  and  _519
REMARK  195  A    between atoms: _521  and  _523
REMARK  196  A    between atoms: _523  and  _524
REMARK  197  A    between atoms: _523  and  _526
REMARK  198  A    between atoms: _526  and  _527
REMARK  199  A    between atoms: _530  and  _532
REMARK  200  A    between atoms: _532  and  _533
REMARK  201  A    between atoms: _532  and  _535
REMARK  202  A    between atoms: _538  and  _540
REMARK  203  A    between atoms: _540  and  _541
REMARK  204  A    between atoms: _540  and  _543
REMARK  205  A    between atoms: _543  and  _544
REMARK  206  A    between atoms: _546  and  _548
REMARK  207  A    between atoms: _548  and  _549
REMARK  208  A    between atoms: _548  and  _551
REMARK  209  A    between atoms: _551  and  _552
REMARK  210  A    between atoms: _555  and  _557
REMARK  211  A    between atoms: _557  and  _558
REMARK  212  A    between atoms: _557  and  _560
REMARK  213  A    between atoms: _560  and  _561
REMARK  214  A    between atoms: _563  and  _565
REMARK  215  A    between atoms: _565  and  _566
REMARK  216  A    between atoms: _565  and  _568
REMARK  217  A    between atoms: _568  and  _569
REMARK  218  A    between atoms: _572  and  _574
REMARK  219  A    between atoms: _574  and  _575
REMARK  220  A    between atoms: _574  and  _577
REMARK  221  A    between atoms: _577  and  _578
REMARK  222  A    between atoms: _578  and  _579
REMARK  223  A    between atoms: _579  and  _580
REMARK  224  A    between atoms: _580  and  _581
REMARK  225  A    between atoms: _585  and  _587
REMARK  226  A    between atoms: _587  and  _588
REMARK  227  A    between atoms: _587  and  _590
REMARK  228  A    between atoms: _590  and  _591
REMARK  229  A    between atoms: _597  and  _599
REMARK  230  A    between atoms: _599  and  _600
REMARK  231  A    between atoms: _599  and  _602
REMARK  232  A    between atoms: _602  and  _603
REMARK  233  A    between atoms: _609  and  _611
REMARK  234  A    between atoms: _611  and  _612
REMARK  235  A    between atoms: _615  and  _617
REMARK  236  A    between atoms: _617  and  _618
REMARK  237  A    between atoms: _617  and  _620
REMARK  238  A    between atoms: _620  and  _621
REMARK  239  A    between atoms: _621  and  _622
REMARK  240  A    between atoms: _624  and  _626
REMARK  241  A    between atoms: _626  and  _627
REMARK  242  A    between atoms: _626  and  _629
REMARK  243  A    between atoms: _629  and  _630
REMARK  244  A    between atoms: _630  and  _631
REMARK  245  A    between atoms: _631  and  _632
REMARK  246  A    between atoms: _632  and  _633
REMARK  247  A    between atoms: _637  and  _639
REMARK  248  A    between atoms: _639  and  _640
REMARK  249  A    between atoms: _639  and  _642
REMARK  250  A    between atoms: _642  and  _643
REMARK  251  A    between atoms: _648  and  _649
REMARK  252  A    between atoms: _651  and  _653
REMARK  253  A    between atoms: _653  and  _654
REMARK  254  A    between atoms: _653  and  _656
REMARK  255  A    between atoms: _656  and  _657
REMARK  256  A    between atoms: _662  and  _664
REMARK  257  A    between atoms: _664  and  _665
REMARK  258  A    between atoms: _664  and  _667
REMARK  259  A    between atoms: _667  and  _668
REMARK  260  A    between atoms: _671  and  _673
REMARK  261  A    between atoms: _673  and  _674
REMARK  262  A    between atoms: _677  and  _679
REMARK  263  A    between atoms: _679  and  _680
REMARK  264  A    between atoms: _679  and  _682
REMARK  265  A    between atoms: _682  and  _683
REMARK  266  A    between atoms: _686  and  _688
REMARK  267  A    between atoms: _688  and  _689
REMARK  268  A    between atoms: _688  and  _691
REMARK  269  A    between atoms: _694  and  _696
REMARK  270  A    between atoms: _696  and  _697
REMARK  271  A    between atoms: _696  and  _699
REMARK  272  A    between atoms: _699  and  _700
REMARK  273  A    between atoms: _700  and  _701
REMARK  274  A    between atoms: _704  and  _706
REMARK  275  A    between atoms: _706  and  _707
REMARK  276  A    between atoms: _706  and  _709
REMARK  277  A    between atoms: _709  and  _710
REMARK  278  A    between atoms: _715  and  _716
REMARK  279  A    between atoms: _718  and  _720
REMARK  280  A    between atoms: _720  and  _721
REMARK  281  A    between atoms: _720  and  _723
REMARK  282  A    between atoms: _723  and  _724
REMARK  283  A    between atoms: _724  and  _725
REMARK  284  A    between atoms: _725  and  _726
REMARK  285  A    between atoms: _735  and  _737
REMARK  286  A    between atoms: _737  and  _738
REMARK  287  A    between atoms: _737  and  _740
REMARK  288  A    between atoms: _740  and  _741
REMARK  289  A    between atoms: _746  and  _747
REMARK  290  A    between atoms: _749  and  _751
REMARK  291  A    between atoms: _751  and  _752
REMARK  292  A    between atoms: _751  and  _754
REMARK  293  A    between atoms: _754  and  _755
REMARK  294  A    between atoms: _758  and  _760
REMARK  295  A    between atoms: _760  and  _761
REMARK  296  A    between atoms: _760  and  _763
REMARK  297  A    between atoms: _763  and  _764
REMARK  298  A    between atoms: _766  and  _768
REMARK  299  A    between atoms: _768  and  _769
REMARK  300  A    between atoms: _768  and  _771
REMARK  301  A    between atoms: _771  and  _772
REMARK  302  A    between atoms: _778  and  _780
REMARK  303  A    between atoms: _780  and  _781
REMARK  304  A    between atoms: _780  and  _783
REMARK  305  A    between atoms: _783  and  _784
REMARK  306  A    between atoms: _784  and  _785
REMARK                            x       y       z     vdW  Elec       q    Type
REMARK                         _______ _______ _______ _____ _____    ______ ____
ROOT
ATOM      1  O   HOH     1      25.896   5.952  12.785  0.00  0.00    +0.000 OA
ENDROOT
TORSDOF 0
REMARK  Name = ../refined-set-2016/4ca7/4ca7_pocket.pdb
REMARK  306 active torsions:
REMARK  status: ('A' for Active; 'I' for Inactive)
REMARK    1  A    between atoms: _1  and  _3
REMARK    2  A    between atoms: _3  and  _4
REMARK    3  A    between atoms: _3  and  _6
REMARK    4  A    between atoms: _6  and  _7
REMARK    5  A    between atoms: _7  and  _8
REMARK    6  A    between atoms: _8  and  _9
REMARK    7  A    between atoms: _9  and  _10
REMARK    8  A    between atoms: _14  and  _16
REMARK    9  A    between atoms: _16  and  _17
REMARK   10  A    between atoms: _16  and  _19
REMARK   11  A    between atoms: _19  and  _20
REMARK   12  A    between atoms: _20  and  _21
REMARK   13  A    between atoms: _24  and  _26
REMARK   14  A    between atoms: _26  and  _27
REMARK   15  A    between atoms: _26  and  _29
REMARK   16  A    between atoms: _29  and  _30
REMARK   17  A    between atoms: _30  and  _31
REMARK   18  A    between atoms: _34  and  _36
REMARK   19  A    between atoms: _36  and  _37
REMARK   20  A    between atoms: _36  and  _39
REMARK   21  A    between atoms: _39  and  _40
REMARK   22  A    between atoms: _45  and  _47
REMARK   23  A    between atoms: _47  and  _48
REMARK   24  A    between atoms: _47  and  _50
REMARK   25  A    between atoms: _50  and  _51
REMARK   26  A    between atoms: _61  and  _63
REMARK   27  A    between atoms: _63  and  _64
REMARK   28  A    between atoms: _63  and  _66
REMARK   29  A    between atoms: _66  and  _67
REMARK   30  A    between atoms: _67  and  _68
REMARK   31  A    between atoms: _73  and  _75
REMARK   32  A    between atoms: _75  and  _76
REMARK   33  A    between atoms: _75  and  _78
REMARK   34  A    between atoms: _78  and  _79
REMARK   35  A    between atoms: _79  and  _80
REMARK   36  A    between atoms: _85  and  _87
REMARK   37  A    between atoms: _87  and  _88
REMARK   38  A    between atoms: _87  and  _90
REMARK   39  A    between atoms: _90  and  _91
REMARK   40  A    between atoms: _93  and  _95
REMARK   41  A    between atoms: _95  and  _96
REMARK   42  A    between atoms: _95  and  _98
REMARK   43  A    between atoms: _101  and  _103
REMARK   44  A    between atoms: _103  and  _104
REMARK   45  A    between atoms: _103  and  _106
REMARK   46  A    between atoms: _108  and  _110
REMARK   47  A    between atoms: _110  and  _111
REMARK   48  A    between atoms: _110  and  _113
REMARK   49  A    between atoms: _113  and  _114
REMARK   50  A    between atoms: _119  and  _121
REMARK   51  A    between atoms: _121  and  _122
REMARK   52  A    between atoms: _125  and  _127
REMARK   53  A    between atoms: _127  and  _128
REMARK   54  A    between atoms: _127  and  _130
REMARK   55  A    between atoms: _130  and  _131
REMARK   56  A    between atoms: _133  and  _135
REMARK   57  A    between atoms: _135  and  _136
REMARK   58  A    between atoms: _139  and  _141
REMARK   59  A    between atoms: _141  and  _142
REMARK   60  A    between atoms: _141  and  _144
REMARK   61  A    between atoms: _144  and  _145
REMARK   62  A    between atoms: _155  and  _157
REMARK   63  A    between atoms: _157  and  _158
REMARK   64  A    between atoms: _157  and  _160
REMARK   65  A    between atoms: _160  and  _161
REMARK   66  A    between atoms: _164  and  _166
REMARK   67  A    between atoms: _166  and  _167
REMARK   68  A    between atoms: _166  and  _169
REMARK   69  A    between atoms: _169  and  _170
REMARK   70  A    between atoms: _175  and  _176
REMARK   71  A    between atoms: _178  and  _180
REMARK   72  A    between atoms: _180  and  _181
REMARK   73  A    between atoms: _180  and  _183
REMARK   74  A    between atoms: _183  and  _184
REMARK   75  A    between atoms: _184  and  _185
REMARK   76  A    between atoms: _185  and  _186
REMARK   77  A    between atoms: _195  and  _197
REMARK   78  A    between atoms: _197  and  _198
REMARK   79  A    between atoms: _197  and  _200
REMARK   80  A    between atoms: _200  and  _201
REMARK   81  A    between atoms: _204  and  _206
REMARK   82  A    between atoms: _206  and  _207
REMARK   83  A    between atoms: _206  and  _209
REMARK   84  A    between atoms: _209  and  _210
REMARK   85  A    between atoms: _210  and  _211
REMARK   86  A    between atoms: _211  and  _212
REMARK   87  A    between atoms: _212  and  _213
REMARK   88  A    between atoms: _217  and  _219
REMARK   89  A    between atoms: _219  and  _220
REMARK   90  A    between atoms: _219  and  _222
REMARK   91  A    between atoms: _222  and  _223
REMARK   92  A    between atoms: _223  and  _224
REMARK   93  A    between atoms: _229  and  _231
REMARK   94  A    between atoms: _231  and  _232
REMARK   95  A    between atoms: _231  and  _234
REMARK   96  A    between atoms: _234  and  _235
REMARK   97  A    between atoms: _235  and  _236
REMARK   98  A    between atoms: _236  and  _237
REMARK   99  A    between atoms: _246  and  _248
REMARK  100  A    between atoms: _248  and  _249
REMARK  101  A    between atoms: _248  and  _251
REMARK  102  A    between atoms: _251  and  _252
REMARK  103  A    between atoms: _252  and  _253
REMARK  104  A    between atoms: _258  and  _260
REMARK  105  A    between atoms: _260  and  _261
REMARK  106  A    between atoms: _260  and  _263
REMARK  107  A    between atoms: _263  and  _264
REMARK  108  A    between atoms: _267  and  _269
REMARK  109  A    between atoms: _269  and  _270
REMARK  110  A    between atoms: _269  and  _272
REMARK  111  A    between atoms: _272  and  _273
REMARK  112  A    between atoms: _273  and  _274
REMARK  113  A    between atoms: _279  and  _281
REMARK  114  A    between atoms: _281  and  _282
REMARK  115  A    between atoms: _281  and  _284
REMARK  116  A    between atoms: _284  and  _285
REMARK  117  A    between atoms: _288  and  _290
REMARK  118  A    between atoms: _290  and  _291
REMARK  119  A    between atoms: _290  and  _293
REMARK  120  A    between atoms: _293  and  _294
REMARK  121  A    between atoms: _300  and  _302
REMARK  122  A    between atoms: _302  and  _303
REMARK  123  A    between atoms: _302  and  _305
REMARK  124  A    between atoms: _305  and  _306
REMARK  125  A    between atoms: _309  and  _311
REMARK  126  A    between atoms: _311  and  _312
REMARK  127  A    between atoms: _311  and  _314
REMARK  128  A    between atoms: _317  and  _319
REMARK  129  A    between atoms: _319  and  _320
REMARK  130  A    between atoms: _319  and  _322
REMARK  131  A    between atoms: _322  and  _323
REMARK  132  A    between atoms: _328  and  _330
REMARK  133  A    between atoms: _341  and  _344
REMARK  134  A    between atoms: _344  and  _345
REMARK  135  A    between atoms: _345  and  _346
REMARK  136  A    between atoms: _351  and  _354
REMARK  137  A    between atoms: _354  and  _355
REMARK  138  A    between atoms: _365  and  _366
REMARK  139  A    between atoms: _374  and  _376
REMARK  140  A    between atoms: _376  and  _377
REMARK  141  A    between atoms: _376  and  _379
REMARK  142  A    between atoms: _379  and  _380
REMARK  143  A    between atoms: _383  and  _385
REMARK  144  A    between atoms: _385  and  _386
REMARK  145  A    between atoms: _385  and  _388
REMARK  146  A    between atoms: _388  and  _389
REMARK  147  A    between atoms: _394  and  _395
REMARK  148  A    between atoms: _397  and  _399
REMARK  149  A    between atoms: _399  and  _400
REMARK  150  A    between atoms: _399  and  _402
REMARK  151  A    between atoms: _402  and  _403
REMARK  152  A    between atoms: _409  and  _411
REMARK  153  A    between atoms: _411  and  _412
REMARK  154  A    between atoms: _411  and  _414
REMARK  155  A    between atoms: _414  and  _415
REMARK  156  A    between atoms: _420  and  _421
REMARK  157  A    between atoms: _423  and  _425
REMARK  158  A    between atoms: _425  and  _426
REMARK  159  A    between atoms: _425  and  _428
REMARK  160  A    between atoms: _428  and  _429
REMARK  161  A    between atoms: _429  and  _430
REMARK  162  A    between atoms: _430  and  _431
REMARK  163  A    between atoms: _440  and  _442
REMARK  164  A    between atoms: _442  and  _443
REMARK  165  A    between atoms: _442  and  _445
REMARK  166  A    between atoms: _445  and  _446
REMARK  167  A    between atoms: _449  and  _451
REMARK  168  A    between atoms: _451  and  _452
REMARK  169  A    between atoms: _454  and  _456
REMARK  170  A    between atoms: _456  and  _457
REMARK  171  A    between atoms: _456  and  _459
REMARK  172  A    between atoms: _459  and  _460
REMARK  173  A    between atoms: _466  and  _467
REMARK  174  A    between atoms: _472  and  _474
REMARK  175  A    between atoms: _474  and  _475
REMARK  176  A    between atoms: _477  and  _479
REMARK  177  A    between atoms: _479  and  _480
REMARK  178  A    between atoms: _479  and  _482
REMARK  179  A    between atoms: _482  and  _483
REMARK  180  A    between atoms: _489  and  _491
REMARK  181  A    between atoms: _491  and  _492
REMARK  182  A    between atoms: _491  and  _494
REMARK  183  A    between atoms: _494  and  _495
REMARK  184  A    between atoms: _500  and  _502
REMARK  185  A    between atoms: _502  and  _503
REMARK  186  A    between atoms: _502  and  _505
REMARK  187  A    between atoms: _505  and  _506
REMARK  188  A    between atoms: _506  and  _507
REMARK  189  A    between atoms: _507  and  _508
REMARK  190  A    between atoms: _508  and  ZN_790
REMARK  191  A    between atoms: _510  and  _512
REMARK  192  A    between atoms: _512  and  _513
REMARK  193  A    between atoms: _516  and  _518
REMARK  194  A    between atoms: _518  and  _519
REMARK  195  A    between atoms: _521  and  _523
REMARK  196  A    between atoms: _523  and  _524
REMARK  197  A    between atoms: _523  and  _526
REMARK  198  A    between atoms: _526  and  _527
REMARK  199  A    between atoms: _530  and  _532
REMARK  200  A    between atoms: _532  and  _533
REMARK  201  A    between atoms: _532  and  _535
REMARK  202  A    between atoms: _538  and  _540
REMARK  203  A    between atoms: _540  and  _541
REMARK  204  A    between atoms: _540  and  _543
REMARK  205  A    between atoms: _543  and  _544
REMARK  206  A    between atoms: _546  and  _548
REMARK  207  A    between atoms: _548  and  _549
REMARK  208  A    between atoms: _548  and  _551
REMARK  209  A    between atoms: _551  and  _552
REMARK  210  A    between atoms: _555  and  _557
REMARK  211  A    between atoms: _557  and  _558
REMARK  212  A    between atoms: _557  and  _560
REMARK  213  A    between atoms: _560  and  _561
REMARK  214  A    between atoms: _563  and  _565
REMARK  215  A    between atoms: _565  and  _566
REMARK  216  A    between atoms: _565  and  _568
REMARK  217  A    between atoms: _568  and  _569
REMARK  218  A    between atoms: _572  and  _574
REMARK  219  A    between atoms: _574  and  _575
REMARK  220  A    between atoms: _574  and  _577
REMARK  221  A    between atoms: _577  and  _578
REMARK  222  A    between atoms: _578  and  _579
REMARK  223  A    between atoms: _579  and  _580
REMARK  224  A    between atoms: _580  and  _581
REMARK  225  A    between atoms: _585  and  _587
REMARK  226  A    between atoms: _587  and  _588
REMARK  227  A    between atoms: _587  and  _590
REMARK  228  A    between atoms: _590  and  _591
REMARK  229  A    between atoms: _597  and  _599
REMARK  230  A    between atoms: _599  and  _600
REMARK  231  A    between atoms: _599  and  _602
REMARK  232  A    between atoms: _602  and  _603
REMARK  233  A    between atoms: _609  and  _611
REMARK  234  A    between atoms: _611  and  _612
REMARK  235  A    between atoms: _615  and  _617
REMARK  236  A    between atoms: _617  and  _618
REMARK  237  A    between atoms: _617  and  _620
REMARK  238  A    between atoms: _620  and  _621
REMARK  239  A    between atoms: _621  and  _622
REMARK  240  A    between atoms: _624  and  _626
REMARK  241  A    between atoms: _626  and  _627
REMARK  242  A    between atoms: _626  and  _629
REMARK  243  A    between atoms: _629  and  _630
REMARK  244  A    between atoms: _630  and  _631
REMARK  245  A    between atoms: _631  and  _632
REMARK  246  A    between atoms: _632  and  _633
REMARK  247  A    between atoms: _637  and  _639
REMARK  248  A    between atoms: _639  and  _640
REMARK  249  A    between atoms: _639  and  _642
REMARK  250  A    between atoms: _642  and  _643
REMARK  251  A    between atoms: _648  and  _649
REMARK  252  A    between atoms: _651  and  _653
REMARK  253  A    between atoms: _653  and  _654
REMARK  254  A    between atoms: _653  and  _656
REMARK  255  A    between atoms: _656  and  _657
REMARK  256  A    between atoms: _662  and  _664
REMARK  257  A    between atoms: _664  and  _665
REMARK  258  A    between atoms: _664  and  _667
REMARK  259  A    between atoms: _667  and  _668
REMARK  260  A    between atoms: _671  and  _673
REMARK  261  A    between atoms: _673  and  _674
REMARK  262  A    between atoms: _677  and  _679
REMARK  263  A    between atoms: _679  and  _680
REMARK  264  A    between atoms: _679  and  _682
REMARK  265  A    between atoms: _682  and  _683
REMARK  266  A    between atoms: _686  and  _688
REMARK  267  A    between atoms: _688  and  _689
REMARK  268  A    between atoms: _688  and  _691
REMARK  269  A    between atoms: _694  and  _696
REMARK  270  A    between atoms: _696  and  _697
REMARK  271  A    between atoms: _696  and  _699
REMARK  272  A    between atoms: _699  and  _700
REMARK  273  A    between atoms: _700  and  _701
REMARK  274  A    between atoms: _704  and  _706
REMARK  275  A    between atoms: _706  and  _707
REMARK  276  A    between atoms: _706  and  _709
REMARK  277  A    between atoms: _709  and  _710
REMARK  278  A    between atoms: _715  and  _716
REMARK  279  A    between atoms: _718  and  _720
REMARK  280  A    between atoms: _720  and  _721
REMARK  281  A    between atoms: _720  and  _723
REMARK  282  A    between atoms: _723  and  _724
REMARK  283  A    between atoms: _724  and  _725
REMARK  284  A    between atoms: _725  and  _726
REMARK  285  A    between atoms: _735  and  _737
REMARK  286  A    between atoms: _737  and  _738
REMARK  287  A    between atoms: _737  and  _740
REMARK  288  A    between atoms: _740  and  _741
REMARK  289  A    between atoms: _746  and  _747
REMARK  290  A    between atoms: _749  and  _751
REMARK  291  A    between atoms: _751  and  _752
REMARK  292  A    between atoms: _751  and  _754
REMARK  293  A    between atoms: _754  and  _755
REMARK  294  A    between atoms: _758  and  _760
REMARK  295  A    between atoms: _760  and  _761
REMARK  296  A    between atoms: _760  and  _763
REMARK  297  A    between atoms: _763  and  _764
REMARK  298  A    between atoms: _766  and  _768
REMARK  299  A    between atoms: _768  and  _769
REMARK  300  A    between atoms: _768  and  _771
REMARK  301  A    between atoms: _771  and  _772
REMARK  302  A    between atoms: _778  and  _780
REMARK  303  A    between atoms: _780  and  _781
REMARK  304  A    between atoms: _780  and  _783
REMARK  305  A    between atoms: _783  and  _784
REMARK  306  A    between atoms: _784  and  _785
REMARK                            x       y       z     vdW  Elec       q    Type
REMARK                         _______ _______ _______ _____ _____    ______ ____
ROOT
ATOM      1  O   HOH     1      23.744  -6.910   1.123  0.00  0.00    +0.000 OA
ENDROOT
TORSDOF 0
REMARK  Name = ../refined-set-2016/4ca7/4ca7_pocket.pdb
REMARK  306 active torsions:
REMARK  status: ('A' for Active; 'I' for Inactive)
REMARK    1  A    between atoms: _1  and  _3
REMARK    2  A    between atoms: _3  and  _4
REMARK    3  A    between atoms: _3  and  _6
REMARK    4  A    between atoms: _6  and  _7
REMARK    5  A    between atoms: _7  and  _8
REMARK    6  A    between atoms: _8  and  _9
REMARK    7  A    between atoms: _9  and  _10
REMARK    8  A    between atoms: _14  and  _16
REMARK    9  A    between atoms: _16  and  _17
REMARK   10  A    between atoms: _16  and  _19
REMARK   11  A    between atoms: _19  and  _20
REMARK   12  A    between atoms: _20  and  _21
REMARK   13  A    between atoms: _24  and  _26
REMARK   14  A    between atoms: _26  and  _27
REMARK   15  A    between atoms: _26  and  _29
REMARK   16  A    between atoms: _29  and  _30
REMARK   17  A    between atoms: _30  and  _31
REMARK   18  A    between atoms: _34  and  _36
REMARK   19  A    between atoms: _36  and  _37
REMARK   20  A    between atoms: _36  and  _39
REMARK   21  A    between atoms: _39  and  _40
REMARK   22  A    between atoms: _45  and  _47
REMARK   23  A    between atoms: _47  and  _48
REMARK   24  A    between atoms: _47  and  _50
REMARK   25  A    between atoms: _50  and  _51
REMARK   26  A    between atoms: _61  and  _63
REMARK   27  A    between atoms: _63  and  _64
REMARK   28  A    between atoms: _63  and  _66
REMARK   29  A    between atoms: _66  and  _67
REMARK   30  A    between atoms: _67  and  _68
REMARK   31  A    between atoms: _73  and  _75
REMARK   32  A    between atoms: _75  and  _76
REMARK   33  A    between atoms: _75  and  _78
REMARK   34  A    between atoms: _78  and  _79
REMARK   35  A    between atoms: _79  and  _80
REMARK   36  A    between atoms: _85  and  _87
REMARK   37  A    between atoms: _87  and  _88
REMARK   38  A    between atoms: _87  and  _90
REMARK   39  A    between atoms: _90  and  _91
REMARK   40  A    between atoms: _93  and  _95
REMARK   41  A    between atoms: _95  and  _96
REMARK   42  A    between atoms: _95  and  _98
REMARK   43  A    between atoms: _101  and  _103
REMARK   44  A    between atoms: _103  and  _104
REMARK   45  A    between atoms: _103  and  _106
REMARK   46  A    between atoms: _108  and  _110
REMARK   47  A    between atoms: _110  and  _111
REMARK   48  A    between atoms: _110  and  _113
REMARK   49  A    between atoms: _113  and  _114
REMARK   50  A    between atoms: _119  and  _121
REMARK   51  A    between atoms: _121  and  _122
REMARK   52  A    between atoms: _125  and  _127
REMARK   53  A    between atoms: _127  and  _128
REMARK   54  A    between atoms: _127  and  _130
REMARK   55  A    between atoms: _130  and  _131
REMARK   56  A    between atoms: _133  and  _135
REMARK   57  A    between atoms: _135  and  _136
REMARK   58  A    between atoms: _139  and  _141
REMARK   59  A    between atoms: _141  and  _142
REMARK   60  A    between atoms: _141  and  _144
REMARK   61  A    between atoms: _144  and  _145
REMARK   62  A    between atoms: _155  and  _157
REMARK   63  A    between atoms: _157  and  _158
REMARK   64  A    between atoms: _157  and  _160
REMARK   65  A    between atoms: _160  and  _161
REMARK   66  A    between atoms: _164  and  _166
REMARK   67  A    between atoms: _166  and  _167
REMARK   68  A    between atoms: _166  and  _169
REMARK   69  A    between atoms: _169  and  _170
REMARK   70  A    between atoms: _175  and  _176
REMARK   71  A    between atoms: _178  and  _180
REMARK   72  A    between atoms: _180  and  _181
REMARK   73  A    between atoms: _180  and  _183
REMARK   74  A    between atoms: _183  and  _184
REMARK   75  A    between atoms: _184  and  _185
REMARK   76  A    between atoms: _185  and  _186
REMARK   77  A    between atoms: _195  and  _197
REMARK   78  A    between atoms: _197  and  _198
REMARK   79  A    between atoms: _197  and  _200
REMARK   80  A    between atoms: _200  and  _201
REMARK   81  A    between atoms: _204  and  _206
REMARK   82  A    between atoms: _206  and  _207
REMARK   83  A    between atoms: _206  and  _209
REMARK   84  A    between atoms: _209  and  _210
REMARK   85  A    between atoms: _210  and  _211
REMARK   86  A    between atoms: _211  and  _212
REMARK   87  A    between atoms: _212  and  _213
REMARK   88  A    between atoms: _217  and  _219
REMARK   89  A    between atoms: _219  and  _220
REMARK   90  A    between atoms: _219  and  _222
REMARK   91  A    between atoms: _222  and  _223
REMARK   92  A    between atoms: _223  and  _224
REMARK   93  A    between atoms: _229  and  _231
REMARK   94  A    between atoms: _231  and  _232
REMARK   95  A    between atoms: _231  and  _234
REMARK   96  A    between atoms: _234  and  _235
REMARK   97  A    between atoms: _235  and  _236
REMARK   98  A    between atoms: _236  and  _237
REMARK   99  A    between atoms: _246  and  _248
REMARK  100  A    between atoms: _248  and  _249
REMARK  101  A    between atoms: _248  and  _251
REMARK  102  A    between atoms: _251  and  _252
REMARK  103  A    between atoms: _252  and  _253
REMARK  104  A    between atoms: _258  and  _260
REMARK  105  A    between atoms: _260  and  _261
REMARK  106  A    between atoms: _260  and  _263
REMARK  107  A    between atoms: _263  and  _264
REMARK  108  A    between atoms: _267  and  _269
REMARK  109  A    between atoms: _269  and  _270
REMARK  110  A    between atoms: _269  and  _272
REMARK  111  A    between atoms: _272  and  _273
REMARK  112  A    between atoms: _273  and  _274
REMARK  113  A    between atoms: _279  and  _281
REMARK  114  A    between atoms: _281  and  _282
REMARK  115  A    between atoms: _281  and  _284
REMARK  116  A    between atoms: _284  and  _285
REMARK  117  A    between atoms: _288  and  _290
REMARK  118  A    between atoms: _290  and  _291
REMARK  119  A    between atoms: _290  and  _293
REMARK  120  A    between atoms: _293  and  _294
REMARK  121  A    between atoms: _300  and  _302
REMARK  122  A    between atoms: _302  and  _303
REMARK  123  A    between atoms: _302  and  _305
REMARK  124  A    between atoms: _305  and  _306
REMARK  125  A    between atoms: _309  and  _311
REMARK  126  A    between atoms: _311  and  _312
REMARK  127  A    between atoms: _311  and  _314
REMARK  128  A    between atoms: _317  and  _319
REMARK  129  A    between atoms: _319  and  _320
REMARK  130  A    between atoms: _319  and  _322
REMARK  131  A    between atoms: _322  and  _323
REMARK  132  A    between atoms: _328  and  _330
REMARK  133  A    between atoms: _341  and  _344
REMARK  134  A    between atoms: _344  and  _345
REMARK  135  A    between atoms: _345  and  _346
REMARK  136  A    between atoms: _351  and  _354
REMARK  137  A    between atoms: _354  and  _355
REMARK  138  A    between atoms: _365  and  _366
REMARK  139  A    between atoms: _374  and  _376
REMARK  140  A    between atoms: _376  and  _377
REMARK  141  A    between atoms: _376  and  _379
REMARK  142  A    between atoms: _379  and  _380
REMARK  143  A    between atoms: _383  and  _385
REMARK  144  A    between atoms: _385  and  _386
REMARK  145  A    between atoms: _385  and  _388
REMARK  146  A    between atoms: _388  and  _389
REMARK  147  A    between atoms: _394  and  _395
REMARK  148  A    between atoms: _397  and  _399
REMARK  149  A    between atoms: _399  and  _400
REMARK  150  A    between atoms: _399  and  _402
REMARK  151  A    between atoms: _402  and  _403
REMARK  152  A    between atoms: _409  and  _411
REMARK  153  A    between atoms: _411  and  _412
REMARK  154  A    between atoms: _411  and  _414
REMARK  155  A    between atoms: _414  and  _415
REMARK  156  A    between atoms: _420  and  _421
REMARK  157  A    between atoms: _423  and  _425
REMARK  158  A    between atoms: _425  and  _426
REMARK  159  A    between atoms: _425  and  _428
REMARK  160  A    between atoms: _428  and  _429
REMARK  161  A    between atoms: _429  and  _430
REMARK  162  A    between atoms: _430  and  _431
REMARK  163  A    between atoms: _440  and  _442
REMARK  164  A    between atoms: _442  and  _443
REMARK  165  A    between atoms: _442  and  _445
REMARK  166  A    between atoms: _445  and  _446
REMARK  167  A    between atoms: _449  and  _451
REMARK  168  A    between atoms: _451  and  _452
REMARK  169  A    between atoms: _454  and  _456
REMARK  170  A    between atoms: _456  and  _457
REMARK  171  A    between atoms: _456  and  _459
REMARK  172  A    between atoms: _459  and  _460
REMARK  173  A    between atoms: _466  and  _467
REMARK  174  A    between atoms: _472  and  _474
REMARK  175  A    between atoms: _474  and  _475
REMARK  176  A    between atoms: _477  and  _479
REMARK  177  A    between atoms: _479  and  _480
REMARK  178  A    between atoms: _479  and  _482
REMARK  179  A    between atoms: _482  and  _483
REMARK  180  A    between atoms: _489  and  _491
REMARK  181  A    between atoms: _491  and  _492
REMARK  182  A    between atoms: _491  and  _494
REMARK  183  A    between atoms: _494  and  _495
REMARK  184  A    between atoms: _500  and  _502
REMARK  185  A    between atoms: _502  and  _503
REMARK  186  A    between atoms: _502  and  _505
REMARK  187  A    between atoms: _505  and  _506
REMARK  188  A    between atoms: _506  and  _507
REMARK  189  A    between atoms: _507  and  _508
REMARK  190  A    between atoms: _508  and  ZN_790
REMARK  191  A    between atoms: _510  and  _512
REMARK  192  A    between atoms: _512  and  _513
REMARK  193  A    between atoms: _516  and  _518
REMARK  194  A    between atoms: _518  and  _519
REMARK  195  A    between atoms: _521  and  _523
REMARK  196  A    between atoms: _523  and  _524
REMARK  197  A    between atoms: _523  and  _526
REMARK  198  A    between atoms: _526  and  _527
REMARK  199  A    between atoms: _530  and  _532
REMARK  200  A    between atoms: _532  and  _533
REMARK  201  A    between atoms: _532  and  _535
REMARK  202  A    between atoms: _538  and  _540
REMARK  203  A    between atoms: _540  and  _541
REMARK  204  A    between atoms: _540  and  _543
REMARK  205  A    between atoms: _543  and  _544
REMARK  206  A    between atoms: _546  and  _548
REMARK  207  A    between atoms: _548  and  _549
REMARK  208  A    between atoms: _548  and  _551
REMARK  209  A    between atoms: _551  and  _552
REMARK  210  A    between atoms: _555  and  _557
REMARK  211  A    between atoms: _557  and  _558
REMARK  212  A    between atoms: _557  and  _560
REMARK  213  A    between atoms: _560  and  _561
REMARK  214  A    between atoms: _563  and  _565
REMARK  215  A    between atoms: _565  and  _566
REMARK  216  A    between atoms: _565  and  _568
REMARK  217  A    between atoms: _568  and  _569
REMARK  218  A    between atoms: _572  and  _574
REMARK  219  A    between atoms: _574  and  _575
REMARK  220  A    between atoms: _574  and  _577
REMARK  221  A    between atoms: _577  and  _578
REMARK  222  A    between atoms: _578  and  _579
REMARK  223  A    between atoms: _579  and  _580
REMARK  224  A    between atoms: _580  and  _581
REMARK  225  A    between atoms: _585  and  _587
REMARK  226  A    between atoms: _587  and  _588
REMARK  227  A    between atoms: _587  and  _590
REMARK  228  A    between atoms: _590  and  _591
REMARK  229  A    between atoms: _597  and  _599
REMARK  230  A    between atoms: _599  and  _600
REMARK  231  A    between atoms: _599  and  _602
REMARK  232  A    between atoms: _602  and  _603
REMARK  233  A    between atoms: _609  and  _611
REMARK  234  A    between atoms: _611  and  _612
REMARK  235  A    between atoms: _615  and  _617
REMARK  236  A    between atoms: _617  and  _618
REMARK  237  A    between atoms: _617  and  _620
REMARK  238  A    between atoms: _620  and  _621
REMARK  239  A    between atoms: _621  and  _622
REMARK  240  A    between atoms: _624  and  _626
REMARK  241  A    between atoms: _626  and  _627
REMARK  242  A    between atoms: _626  and  _629
REMARK  243  A    between atoms: _629  and  _630
REMARK  244  A    between atoms: _630  and  _631
REMARK  245  A    between atoms: _631  and  _632
REMARK  246  A    between atoms: _632  and  _633
REMARK  247  A    between atoms: _637  and  _639
REMARK  248  A    between atoms: _639  and  _640
REMARK  249  A    between atoms: _639  and  _642
REMARK  250  A    between atoms: _642  and  _643
REMARK  251  A    between atoms: _648  and  _649
REMARK  252  A    between atoms: _651  and  _653
REMARK  253  A    between atoms: _653  and  _654
REMARK  254  A    between atoms: _653  and  _656
REMARK  255  A    between atoms: _656  and  _657
REMARK  256  A    between atoms: _662  and  _664
REMARK  257  A    between atoms: _664  and  _665
REMARK  258  A    between atoms: _664  and  _667
REMARK  259  A    between atoms: _667  and  _668
REMARK  260  A    between atoms: _671  and  _673
REMARK  261  A    between atoms: _673  and  _674
REMARK  262  A    between atoms: _677  and  _679
REMARK  263  A    between atoms: _679  and  _680
REMARK  264  A    between atoms: _679  and  _682
REMARK  265  A    between atoms: _682  and  _683
REMARK  266  A    between atoms: _686  and  _688
REMARK  267  A    between atoms: _688  and  _689
REMARK  268  A    between atoms: _688  and  _691
REMARK  269  A    between atoms: _694  and  _696
REMARK  270  A    between atoms: _696  and  _697
REMARK  271  A    between atoms: _696  and  _699
REMARK  272  A    between atoms: _699  and  _700
REMARK  273  A    between atoms: _700  and  _701
REMARK  274  A    between atoms: _704  and  _706
REMARK  275  A    between atoms: _706  and  _707
REMARK  276  A    between atoms: _706  and  _709
REMARK  277  A    between atoms: _709  and  _710
REMARK  278  A    between atoms: _715  and  _716
REMARK  279  A    between atoms: _718  and  _720
REMARK  280  A    between atoms: _720  and  _721
REMARK  281  A    between atoms: _720  and  _723
REMARK  282  A    between atoms: _723  and  _724
REMARK  283  A    between atoms: _724  and  _725
REMARK  284  A    between atoms: _725  and  _726
REMARK  285  A    between atoms: _735  and  _737
REMARK  286  A    between atoms: _737  and  _738
REMARK  287  A    between atoms: _737  and  _740
REMARK  288  A    between atoms: _740  and  _741
REMARK  289  A    between atoms: _746  and  _747
REMARK  290  A    between atoms: _749  and  _751
REMARK  291  A    between atoms: _751  and  _752
REMARK  292  A    between atoms: _751  and  _754
REMARK  293  A    between atoms: _754  and  _755
REMARK  294  A    between atoms: _758  and  _760
REMARK  295  A    between atoms: _760  and  _761
REMARK  296  A    between atoms: _760  and  _763
REMARK  297  A    between atoms: _763  and  _764
REMARK  298  A    between atoms: _766  and  _768
REMARK  299  A    between atoms: _768  and  _769
REMARK  300  A    between atoms: _768  and  _771
REMARK  301  A    between atoms: _771  and  _772
REMARK  302  A    between atoms: _778  and  _780
REMARK  303  A    between atoms: _780  and  _781
REMARK  304  A    between atoms: _780  and  _783
REMARK  305  A    between atoms: _783  and  _784
REMARK  306  A    between atoms: _784  and  _785
REMARK                            x       y       z     vdW  Elec       q    Type
REMARK                         _______ _______ _______ _____ _____    ______ ____
ROOT
ATOM      1  O   HOH     1      26.805  -4.264   1.552  0.00  0.00    +0.000 OA
ENDROOT
TORSDOF 0
REMARK  Name = ../refined-set-2016/4ca7/4ca7_pocket.pdb
REMARK  306 active torsions:
REMARK  status: ('A' for Active; 'I' for Inactive)
REMARK    1  A    between atoms: _1  and  _3
REMARK    2  A    between atoms: _3  and  _4
REMARK    3  A    between atoms: _3  and  _6
REMARK    4  A    between atoms: _6  and  _7
REMARK    5  A    between atoms: _7  and  _8
REMARK    6  A    between atoms: _8  and  _9
REMARK    7  A    between atoms: _9  and  _10
REMARK    8  A    between atoms: _14  and  _16
REMARK    9  A    between atoms: _16  and  _17
REMARK   10  A    between atoms: _16  and  _19
REMARK   11  A    between atoms: _19  and  _20
REMARK   12  A    between atoms: _20  and  _21
REMARK   13  A    between atoms: _24  and  _26
REMARK   14  A    between atoms: _26  and  _27
REMARK   15  A    between atoms: _26  and  _29
REMARK   16  A    between atoms: _29  and  _30
REMARK   17  A    between atoms: _30  and  _31
REMARK   18  A    between atoms: _34  and  _36
REMARK   19  A    between atoms: _36  and  _37
REMARK   20  A    between atoms: _36  and  _39
REMARK   21  A    between atoms: _39  and  _40
REMARK   22  A    between atoms: _45  and  _47
REMARK   23  A    between atoms: _47  and  _48
REMARK   24  A    between atoms: _47  and  _50
REMARK   25  A    between atoms: _50  and  _51
REMARK   26  A    between atoms: _61  and  _63
REMARK   27  A    between atoms: _63  and  _64
REMARK   28  A    between atoms: _63  and  _66
REMARK   29  A    between atoms: _66  and  _67
REMARK   30  A    between atoms: _67  and  _68
REMARK   31  A    between atoms: _73  and  _75
REMARK   32  A    between atoms: _75  and  _76
REMARK   33  A    between atoms: _75  and  _78
REMARK   34  A    between atoms: _78  and  _79
REMARK   35  A    between atoms: _79  and  _80
REMARK   36  A    between atoms: _85  and  _87
REMARK   37  A    between atoms: _87  and  _88
REMARK   38  A    between atoms: _87  and  _90
REMARK   39  A    between atoms: _90  and  _91
REMARK   40  A    between atoms: _93  and  _95
REMARK   41  A    between atoms: _95  and  _96
REMARK   42  A    between atoms: _95  and  _98
REMARK   43  A    between atoms: _101  and  _103
REMARK   44  A    between atoms: _103  and  _104
REMARK   45  A    between atoms: _103  and  _106
REMARK   46  A    between atoms: _108  and  _110
REMARK   47  A    between atoms: _110  and  _111
REMARK   48  A    between atoms: _110  and  _113
REMARK   49  A    between atoms: _113  and  _114
REMARK   50  A    between atoms: _119  and  _121
REMARK   51  A    between atoms: _121  and  _122
REMARK   52  A    between atoms: _125  and  _127
REMARK   53  A    between atoms: _127  and  _128
REMARK   54  A    between atoms: _127  and  _130
REMARK   55  A    between atoms: _130  and  _131
REMARK   56  A    between atoms: _133  and  _135
REMARK   57  A    between atoms: _135  and  _136
REMARK   58  A    between atoms: _139  and  _141
REMARK   59  A    between atoms: _141  and  _142
REMARK   60  A    between atoms: _141  and  _144
REMARK   61  A    between atoms: _144  and  _145
REMARK   62  A    between atoms: _155  and  _157
REMARK   63  A    between atoms: _157  and  _158
REMARK   64  A    between atoms: _157  and  _160
REMARK   65  A    between atoms: _160  and  _161
REMARK   66  A    between atoms: _164  and  _166
REMARK   67  A    between atoms: _166  and  _167
REMARK   68  A    between atoms: _166  and  _169
REMARK   69  A    between atoms: _169  and  _170
REMARK   70  A    between atoms: _175  and  _176
REMARK   71  A    between atoms: _178  and  _180
REMARK   72  A    between atoms: _180  and  _181
REMARK   73  A    between atoms: _180  and  _183
REMARK   74  A    between atoms: _183  and  _184
REMARK   75  A    between atoms: _184  and  _185
REMARK   76  A    between atoms: _185  and  _186
REMARK   77  A    between atoms: _195  and  _197
REMARK   78  A    between atoms: _197  and  _198
REMARK   79  A    between atoms: _197  and  _200
REMARK   80  A    between atoms: _200  and  _201
REMARK   81  A    between atoms: _204  and  _206
REMARK   82  A    between atoms: _206  and  _207
REMARK   83  A    between atoms: _206  and  _209
REMARK   84  A    between atoms: _209  and  _210
REMARK   85  A    between atoms: _210  and  _211
REMARK   86  A    between atoms: _211  and  _212
REMARK   87  A    between atoms: _212  and  _213
REMARK   88  A    between atoms: _217  and  _219
REMARK   89  A    between atoms: _219  and  _220
REMARK   90  A    between atoms: _219  and  _222
REMARK   91  A    between atoms: _222  and  _223
REMARK   92  A    between atoms: _223  and  _224
REMARK   93  A    between atoms: _229  and  _231
REMARK   94  A    between atoms: _231  and  _232
REMARK   95  A    between atoms: _231  and  _234
REMARK   96  A    between atoms: _234  and  _235
REMARK   97  A    between atoms: _235  and  _236
REMARK   98  A    between atoms: _236  and  _237
REMARK   99  A    between atoms: _246  and  _248
REMARK  100  A    between atoms: _248  and  _249
REMARK  101  A    between atoms: _248  and  _251
REMARK  102  A    between atoms: _251  and  _252
REMARK  103  A    between atoms: _252  and  _253
REMARK  104  A    between atoms: _258  and  _260
REMARK  105  A    between atoms: _260  and  _261
REMARK  106  A    between atoms: _260  and  _263
REMARK  107  A    between atoms: _263  and  _264
REMARK  108  A    between atoms: _267  and  _269
REMARK  109  A    between atoms: _269  and  _270
REMARK  110  A    between atoms: _269  and  _272
REMARK  111  A    between atoms: _272  and  _273
REMARK  112  A    between atoms: _273  and  _274
REMARK  113  A    between atoms: _279  and  _281
REMARK  114  A    between atoms: _281  and  _282
REMARK  115  A    between atoms: _281  and  _284
REMARK  116  A    between atoms: _284  and  _285
REMARK  117  A    between atoms: _288  and  _290
REMARK  118  A    between atoms: _290  and  _291
REMARK  119  A    between atoms: _290  and  _293
REMARK  120  A    between atoms: _293  and  _294
REMARK  121  A    between atoms: _300  and  _302
REMARK  122  A    between atoms: _302  and  _303
REMARK  123  A    between atoms: _302  and  _305
REMARK  124  A    between atoms: _305  and  _306
REMARK  125  A    between atoms: _309  and  _311
REMARK  126  A    between atoms: _311  and  _312
REMARK  127  A    between atoms: _311  and  _314
REMARK  128  A    between atoms: _317  and  _319
REMARK  129  A    between atoms: _319  and  _320
REMARK  130  A    between atoms: _319  and  _322
REMARK  131  A    between atoms: _322  and  _323
REMARK  132  A    between atoms: _328  and  _330
REMARK  133  A    between atoms: _341  and  _344
REMARK  134  A    between atoms: _344  and  _345
REMARK  135  A    between atoms: _345  and  _346
REMARK  136  A    between atoms: _351  and  _354
REMARK  137  A    between atoms: _354  and  _355
REMARK  138  A    between atoms: _365  and  _366
REMARK  139  A    between atoms: _374  and  _376
REMARK  140  A    between atoms: _376  and  _377
REMARK  141  A    between atoms: _376  and  _379
REMARK  142  A    between atoms: _379  and  _380
REMARK  143  A    between atoms: _383  and  _385
REMARK  144  A    between atoms: _385  and  _386
REMARK  145  A    between atoms: _385  and  _388
REMARK  146  A    between atoms: _388  and  _389
REMARK  147  A    between atoms: _394  and  _395
REMARK  148  A    between atoms: _397  and  _399
REMARK  149  A    between atoms: _399  and  _400
REMARK  150  A    between atoms: _399  and  _402
REMARK  151  A    between atoms: _402  and  _403
REMARK  152  A    between atoms: _409  and  _411
REMARK  153  A    between atoms: _411  and  _412
REMARK  154  A    between atoms: _411  and  _414
REMARK  155  A    between atoms: _414  and  _415
REMARK  156  A    between atoms: _420  and  _421
REMARK  157  A    between atoms: _423  and  _425
REMARK  158  A    between atoms: _425  and  _426
REMARK  159  A    between atoms: _425  and  _428
REMARK  160  A    between atoms: _428  and  _429
REMARK  161  A    between atoms: _429  and  _430
REMARK  162  A    between atoms: _430  and  _431
REMARK  163  A    between atoms: _440  and  _442
REMARK  164  A    between atoms: _442  and  _443
REMARK  165  A    between atoms: _442  and  _445
REMARK  166  A    between atoms: _445  and  _446
REMARK  167  A    between atoms: _449  and  _451
REMARK  168  A    between atoms: _451  and  _452
REMARK  169  A    between atoms: _454  and  _456
REMARK  170  A    between atoms: _456  and  _457
REMARK  171  A    between atoms: _456  and  _459
REMARK  172  A    between atoms: _459  and  _460
REMARK  173  A    between atoms: _466  and  _467
REMARK  174  A    between atoms: _472  and  _474
REMARK  175  A    between atoms: _474  and  _475
REMARK  176  A    between atoms: _477  and  _479
REMARK  177  A    between atoms: _479  and  _480
REMARK  178  A    between atoms: _479  and  _482
REMARK  179  A    between atoms: _482  and  _483
REMARK  180  A    between atoms: _489  and  _491
REMARK  181  A    between atoms: _491  and  _492
REMARK  182  A    between atoms: _491  and  _494
REMARK  183  A    between atoms: _494  and  _495
REMARK  184  A    between atoms: _500  and  _502
REMARK  185  A    between atoms: _502  and  _503
REMARK  186  A    between atoms: _502  and  _505
REMARK  187  A    between atoms: _505  and  _506
REMARK  188  A    between atoms: _506  and  _507
REMARK  189  A    between atoms: _507  and  _508
REMARK  190  A    between atoms: _508  and  ZN_790
REMARK  191  A    between atoms: _510  and  _512
REMARK  192  A    between atoms: _512  and  _513
REMARK  193  A    between atoms: _516  and  _518
REMARK  194  A    between atoms: _518  and  _519
REMARK  195  A    between atoms: _521  and  _523
REMARK  196  A    between atoms: _523  and  _524
REMARK  197  A    between atoms: _523  and  _526
REMARK  198  A    between atoms: _526  and  _527
REMARK  199  A    between atoms: _530  and  _532
REMARK  200  A    between atoms: _532  and  _533
REMARK  201  A    between atoms: _532  and  _535
REMARK  202  A    between atoms: _538  and  _540
REMARK  203  A    between atoms: _540  and  _541
REMARK  204  A    between atoms: _540  and  _543
REMARK  205  A    between atoms: _543  and  _544
REMARK  206  A    between atoms: _546  and  _548
REMARK  207  A    between atoms: _548  and  _549
REMARK  208  A    between atoms: _548  and  _551
REMARK  209  A    between atoms: _551  and  _552
REMARK  210  A    between atoms: _555  and  _557
REMARK  211  A    between atoms: _557  and  _558
REMARK  212  A    between atoms: _557  and  _560
REMARK  213  A    between atoms: _560  and  _561
REMARK  214  A    between atoms: _563  and  _565
REMARK  215  A    between atoms: _565  and  _566
REMARK  216  A    between atoms: _565  and  _568
REMARK  217  A    between atoms: _568  and  _569
REMARK  218  A    between atoms: _572  and  _574
REMARK  219  A    between atoms: _574  and  _575
REMARK  220  A    between atoms: _574  and  _577
REMARK  221  A    between atoms: _577  and  _578
REMARK  222  A    between atoms: _578  and  _579
REMARK  223  A    between atoms: _579  and  _580
REMARK  224  A    between atoms: _580  and  _581
REMARK  225  A    between atoms: _585  and  _587
REMARK  226  A    between atoms: _587  and  _588
REMARK  227  A    between atoms: _587  and  _590
REMARK  228  A    between atoms: _590  and  _591
REMARK  229  A    between atoms: _597  and  _599
REMARK  230  A    between atoms: _599  and  _600
REMARK  231  A    between atoms: _599  and  _602
REMARK  232  A    between atoms: _602  and  _603
REMARK  233  A    between atoms: _609  and  _611
REMARK  234  A    between atoms: _611  and  _612
REMARK  235  A    between atoms: _615  and  _617
REMARK  236  A    between atoms: _617  and  _618
REMARK  237  A    between atoms: _617  and  _620
REMARK  238  A    between atoms: _620  and  _621
REMARK  239  A    between atoms: _621  and  _622
REMARK  240  A    between atoms: _624  and  _626
REMARK  241  A    between atoms: _626  and  _627
REMARK  242  A    between atoms: _626  and  _629
REMARK  243  A    between atoms: _629  and  _630
REMARK  244  A    between atoms: _630  and  _631
REMARK  245  A    between atoms: _631  and  _632
REMARK  246  A    between atoms: _632  and  _633
REMARK  247  A    between atoms: _637  and  _639
REMARK  248  A    between atoms: _639  and  _640
REMARK  249  A    between atoms: _639  and  _642
REMARK  250  A    between atoms: _642  and  _643
REMARK  251  A    between atoms: _648  and  _649
REMARK  252  A    between atoms: _651  and  _653
REMARK  253  A    between atoms: _653  and  _654
REMARK  254  A    between atoms: _653  and  _656
REMARK  255  A    between atoms: _656  and  _657
REMARK  256  A    between atoms: _662  and  _664
REMARK  257  A    between atoms: _664  and  _665
REMARK  258  A    between atoms: _664  and  _667
REMARK  259  A    between atoms: _667  and  _668
REMARK  260  A    between atoms: _671  and  _673
REMARK  261  A    between atoms: _673  and  _674
REMARK  262  A    between atoms: _677  and  _679
REMARK  263  A    between atoms: _679  and  _680
REMARK  264  A    between atoms: _679  and  _682
REMARK  265  A    between atoms: _682  and  _683
REMARK  266  A    between atoms: _686  and  _688
REMARK  267  A    between atoms: _688  and  _689
REMARK  268  A    between atoms: _688  and  _691
REMARK  269  A    between atoms: _694  and  _696
REMARK  270  A    between atoms: _696  and  _697
REMARK  271  A    between atoms: _696  and  _699
REMARK  272  A    between atoms: _699  and  _700
REMARK  273  A    between atoms: _700  and  _701
REMARK  274  A    between atoms: _704  and  _706
REMARK  275  A    between atoms: _706  and  _707
REMARK  276  A    between atoms: _706  and  _709
REMARK  277  A    between atoms: _709  and  _710
REMARK  278  A    between atoms: _715  and  _716
REMARK  279  A    between atoms: _718  and  _720
REMARK  280  A    between atoms: _720  and  _721
REMARK  281  A    between atoms: _720  and  _723
REMARK  282  A    between atoms: _723  and  _724
REMARK  283  A    between atoms: _724  and  _725
REMARK  284  A    between atoms: _725  and  _726
REMARK  285  A    between atoms: _735  and  _737
REMARK  286  A    between atoms: _737  and  _738
REMARK  287  A    between atoms: _737  and  _740
REMARK  288  A    between atoms: _740  and  _741
REMARK  289  A    between atoms: _746  and  _747
REMARK  290  A    between atoms: _749  and  _751
REMARK  291  A    between atoms: _751  and  _752
REMARK  292  A    between atoms: _751  and  _754
REMARK  293  A    between atoms: _754  and  _755
REMARK  294  A    between atoms: _758  and  _760
REMARK  295  A    between atoms: _760  and  _761
REMARK  296  A    between atoms: _760  and  _763
REMARK  297  A    between atoms: _763  and  _764
REMARK  298  A    between atoms: _766  and  _768
REMARK  299  A    between atoms: _768  and  _769
REMARK  300  A    between atoms: _768  and  _771
REMARK  301  A    between atoms: _771  and  _772
REMARK  302  A    between atoms: _778  and  _780
REMARK  303  A    between atoms: _780  and  _781
REMARK  304  A    between atoms: _780  and  _783
REMARK  305  A    between atoms: _783  and  _784
REMARK  306  A    between atoms: _784  and  _785
REMARK                            x       y       z     vdW  Elec       q    Type
REMARK                         _______ _______ _______ _____ _____    ______ ____
ROOT
ATOM      1  O   HOH     1      28.805   4.517  18.258  0.00  0.00    +0.000 OA
ENDROOT
TORSDOF 0
REMARK  Name = ../refined-set-2016/4ca7/4ca7_pocket.pdb
REMARK  306 active torsions:
REMARK  status: ('A' for Active; 'I' for Inactive)
REMARK    1  A    between atoms: _1  and  _3
REMARK    2  A    between atoms: _3  and  _4
REMARK    3  A    between atoms: _3  and  _6
REMARK    4  A    between atoms: _6  and  _7
REMARK    5  A    between atoms: _7  and  _8
REMARK    6  A    between atoms: _8  and  _9
REMARK    7  A    between atoms: _9  and  _10
REMARK    8  A    between atoms: _14  and  _16
REMARK    9  A    between atoms: _16  and  _17
REMARK   10  A    between atoms: _16  and  _19
REMARK   11  A    between atoms: _19  and  _20
REMARK   12  A    between atoms: _20  and  _21
REMARK   13  A    between atoms: _24  and  _26
REMARK   14  A    between atoms: _26  and  _27
REMARK   15  A    between atoms: _26  and  _29
REMARK   16  A    between atoms: _29  and  _30
REMARK   17  A    between atoms: _30  and  _31
REMARK   18  A    between atoms: _34  and  _36
REMARK   19  A    between atoms: _36  and  _37
REMARK   20  A    between atoms: _36  and  _39
REMARK   21  A    between atoms: _39  and  _40
REMARK   22  A    between atoms: _45  and  _47
REMARK   23  A    between atoms: _47  and  _48
REMARK   24  A    between atoms: _47  and  _50
REMARK   25  A    between atoms: _50  and  _51
REMARK   26  A    between atoms: _61  and  _63
REMARK   27  A    between atoms: _63  and  _64
REMARK   28  A    between atoms: _63  and  _66
REMARK   29  A    between atoms: _66  and  _67
REMARK   30  A    between atoms: _67  and  _68
REMARK   31  A    between atoms: _73  and  _75
REMARK   32  A    between atoms: _75  and  _76
REMARK   33  A    between atoms: _75  and  _78
REMARK   34  A    between atoms: _78  and  _79
REMARK   35  A    between atoms: _79  and  _80
REMARK   36  A    between atoms: _85  and  _87
REMARK   37  A    between atoms: _87  and  _88
REMARK   38  A    between atoms: _87  and  _90
REMARK   39  A    between atoms: _90  and  _91
REMARK   40  A    between atoms: _93  and  _95
REMARK   41  A    between atoms: _95  and  _96
REMARK   42  A    between atoms: _95  and  _98
REMARK   43  A    between atoms: _101  and  _103
REMARK   44  A    between atoms: _103  and  _104
REMARK   45  A    between atoms: _103  and  _106
REMARK   46  A    between atoms: _108  and  _110
REMARK   47  A    between atoms: _110  and  _111
REMARK   48  A    between atoms: _110  and  _113
REMARK   49  A    between atoms: _113  and  _114
REMARK   50  A    between atoms: _119  and  _121
REMARK   51  A    between atoms: _121  and  _122
REMARK   52  A    between atoms: _125  and  _127
REMARK   53  A    between atoms: _127  and  _128
REMARK   54  A    between atoms: _127  and  _130
REMARK   55  A    between atoms: _130  and  _131
REMARK   56  A    between atoms: _133  and  _135
REMARK   57  A    between atoms: _135  and  _136
REMARK   58  A    between atoms: _139  and  _141
REMARK   59  A    between atoms: _141  and  _142
REMARK   60  A    between atoms: _141  and  _144
REMARK   61  A    between atoms: _144  and  _145
REMARK   62  A    between atoms: _155  and  _157
REMARK   63  A    between atoms: _157  and  _158
REMARK   64  A    between atoms: _157  and  _160
REMARK   65  A    between atoms: _160  and  _161
REMARK   66  A    between atoms: _164  and  _166
REMARK   67  A    between atoms: _166  and  _167
REMARK   68  A    between atoms: _166  and  _169
REMARK   69  A    between atoms: _169  and  _170
REMARK   70  A    between atoms: _175  and  _176
REMARK   71  A    between atoms: _178  and  _180
REMARK   72  A    between atoms: _180  and  _181
REMARK   73  A    between atoms: _180  and  _183
REMARK   74  A    between atoms: _183  and  _184
REMARK   75  A    between atoms: _184  and  _185
REMARK   76  A    between atoms: _185  and  _186
REMARK   77  A    between atoms: _195  and  _197
REMARK   78  A    between atoms: _197  and  _198
REMARK   79  A    between atoms: _197  and  _200
REMARK   80  A    between atoms: _200  and  _201
REMARK   81  A    between atoms: _204  and  _206
REMARK   82  A    between atoms: _206  and  _207
REMARK   83  A    between atoms: _206  and  _209
REMARK   84  A    between atoms: _209  and  _210
REMARK   85  A    between atoms: _210  and  _211
REMARK   86  A    between atoms: _211  and  _212
REMARK   87  A    between atoms: _212  and  _213
REMARK   88  A    between atoms: _217  and  _219
REMARK   89  A    between atoms: _219  and  _220
REMARK   90  A    between atoms: _219  and  _222
REMARK   91  A    between atoms: _222  and  _223
REMARK   92  A    between atoms: _223  and  _224
REMARK   93  A    between atoms: _229  and  _231
REMARK   94  A    between atoms: _231  and  _232
REMARK   95  A    between atoms: _231  and  _234
REMARK   96  A    between atoms: _234  and  _235
REMARK   97  A    between atoms: _235  and  _236
REMARK   98  A    between atoms: _236  and  _237
REMARK   99  A    between atoms: _246  and  _248
REMARK  100  A    between atoms: _248  and  _249
REMARK  101  A    between atoms: _248  and  _251
REMARK  102  A    between atoms: _251  and  _252
REMARK  103  A    between atoms: _252  and  _253
REMARK  104  A    between atoms: _258  and  _260
REMARK  105  A    between atoms: _260  and  _261
REMARK  106  A    between atoms: _260  and  _263
REMARK  107  A    between atoms: _263  and  _264
REMARK  108  A    between atoms: _267  and  _269
REMARK  109  A    between atoms: _269  and  _270
REMARK  110  A    between atoms: _269  and  _272
REMARK  111  A    between atoms: _272  and  _273
REMARK  112  A    between atoms: _273  and  _274
REMARK  113  A    between atoms: _279  and  _281
REMARK  114  A    between atoms: _281  and  _282
REMARK  115  A    between atoms: _281  and  _284
REMARK  116  A    between atoms: _284  and  _285
REMARK  117  A    between atoms: _288  and  _290
REMARK  118  A    between atoms: _290  and  _291
REMARK  119  A    between atoms: _290  and  _293
REMARK  120  A    between atoms: _293  and  _294
REMARK  121  A    between atoms: _300  and  _302
REMARK  122  A    between atoms: _302  and  _303
REMARK  123  A    between atoms: _302  and  _305
REMARK  124  A    between atoms: _305  and  _306
REMARK  125  A    between atoms: _309  and  _311
REMARK  126  A    between atoms: _311  and  _312
REMARK  127  A    between atoms: _311  and  _314
REMARK  128  A    between atoms: _317  and  _319
REMARK  129  A    between atoms: _319  and  _320
REMARK  130  A    between atoms: _319  and  _322
REMARK  131  A    between atoms: _322  and  _323
REMARK  132  A    between atoms: _328  and  _330
REMARK  133  A    between atoms: _341  and  _344
REMARK  134  A    between atoms: _344  and  _345
REMARK  135  A    between atoms: _345  and  _346
REMARK  136  A    between atoms: _351  and  _354
REMARK  137  A    between atoms: _354  and  _355
REMARK  138  A    between atoms: _365  and  _366
REMARK  139  A    between atoms: _374  and  _376
REMARK  140  A    between atoms: _376  and  _377
REMARK  141  A    between atoms: _376  and  _379
REMARK  142  A    between atoms: _379  and  _380
REMARK  143  A    between atoms: _383  and  _385
REMARK  144  A    between atoms: _385  and  _386
REMARK  145  A    between atoms: _385  and  _388
REMARK  146  A    between atoms: _388  and  _389
REMARK  147  A    between atoms: _394  and  _395
REMARK  148  A    between atoms: _397  and  _399
REMARK  149  A    between atoms: _399  and  _400
REMARK  150  A    between atoms: _399  and  _402
REMARK  151  A    between atoms: _402  and  _403
REMARK  152  A    between atoms: _409  and  _411
REMARK  153  A    between atoms: _411  and  _412
REMARK  154  A    between atoms: _411  and  _414
REMARK  155  A    between atoms: _414  and  _415
REMARK  156  A    between atoms: _420  and  _421
REMARK  157  A    between atoms: _423  and  _425
REMARK  158  A    between atoms: _425  and  _426
REMARK  159  A    between atoms: _425  and  _428
REMARK  160  A    between atoms: _428  and  _429
REMARK  161  A    between atoms: _429  and  _430
REMARK  162  A    between atoms: _430  and  _431
REMARK  163  A    between atoms: _440  and  _442
REMARK  164  A    between atoms: _442  and  _443
REMARK  165  A    between atoms: _442  and  _445
REMARK  166  A    between atoms: _445  and  _446
REMARK  167  A    between atoms: _449  and  _451
REMARK  168  A    between atoms: _451  and  _452
REMARK  169  A    between atoms: _454  and  _456
REMARK  170  A    between atoms: _456  and  _457
REMARK  171  A    between atoms: _456  and  _459
REMARK  172  A    between atoms: _459  and  _460
REMARK  173  A    between atoms: _466  and  _467
REMARK  174  A    between atoms: _472  and  _474
REMARK  175  A    between atoms: _474  and  _475
REMARK  176  A    between atoms: _477  and  _479
REMARK  177  A    between atoms: _479  and  _480
REMARK  178  A    between atoms: _479  and  _482
REMARK  179  A    between atoms: _482  and  _483
REMARK  180  A    between atoms: _489  and  _491
REMARK  181  A    between atoms: _491  and  _492
REMARK  182  A    between atoms: _491  and  _494
REMARK  183  A    between atoms: _494  and  _495
REMARK  184  A    between atoms: _500  and  _502
REMARK  185  A    between atoms: _502  and  _503
REMARK  186  A    between atoms: _502  and  _505
REMARK  187  A    between atoms: _505  and  _506
REMARK  188  A    between atoms: _506  and  _507
REMARK  189  A    between atoms: _507  and  _508
REMARK  190  A    between atoms: _508  and  ZN_790
REMARK  191  A    between atoms: _510  and  _512
REMARK  192  A    between atoms: _512  and  _513
REMARK  193  A    between atoms: _516  and  _518
REMARK  194  A    between atoms: _518  and  _519
REMARK  195  A    between atoms: _521  and  _523
REMARK  196  A    between atoms: _523  and  _524
REMARK  197  A    between atoms: _523  and  _526
REMARK  198  A    between atoms: _526  and  _527
REMARK  199  A    between atoms: _530  and  _532
REMARK  200  A    between atoms: _532  and  _533
REMARK  201  A    between atoms: _532  and  _535
REMARK  202  A    between atoms: _538  and  _540
REMARK  203  A    between atoms: _540  and  _541
REMARK  204  A    between atoms: _540  and  _543
REMARK  205  A    between atoms: _543  and  _544
REMARK  206  A    between atoms: _546  and  _548
REMARK  207  A    between atoms: _548  and  _549
REMARK  208  A    between atoms: _548  and  _551
REMARK  209  A    between atoms: _551  and  _552
REMARK  210  A    between atoms: _555  and  _557
REMARK  211  A    between atoms: _557  and  _558
REMARK  212  A    between atoms: _557  and  _560
REMARK  213  A    between atoms: _560  and  _561
REMARK  214  A    between atoms: _563  and  _565
REMARK  215  A    between atoms: _565  and  _566
REMARK  216  A    between atoms: _565  and  _568
REMARK  217  A    between atoms: _568  and  _569
REMARK  218  A    between atoms: _572  and  _574
REMARK  219  A    between atoms: _574  and  _575
REMARK  220  A    between atoms: _574  and  _577
REMARK  221  A    between atoms: _577  and  _578
REMARK  222  A    between atoms: _578  and  _579
REMARK  223  A    between atoms: _579  and  _580
REMARK  224  A    between atoms: _580  and  _581
REMARK  225  A    between atoms: _585  and  _587
REMARK  226  A    between atoms: _587  and  _588
REMARK  227  A    between atoms: _587  and  _590
REMARK  228  A    between atoms: _590  and  _591
REMARK  229  A    between atoms: _597  and  _599
REMARK  230  A    between atoms: _599  and  _600
REMARK  231  A    between atoms: _599  and  _602
REMARK  232  A    between atoms: _602  and  _603
REMARK  233  A    between atoms: _609  and  _611
REMARK  234  A    between atoms: _611  and  _612
REMARK  235  A    between atoms: _615  and  _617
REMARK  236  A    between atoms: _617  and  _618
REMARK  237  A    between atoms: _617  and  _620
REMARK  238  A    between atoms: _620  and  _621
REMARK  239  A    between atoms: _621  and  _622
REMARK  240  A    between atoms: _624  and  _626
REMARK  241  A    between atoms: _626  and  _627
REMARK  242  A    between atoms: _626  and  _629
REMARK  243  A    between atoms: _629  and  _630
REMARK  244  A    between atoms: _630  and  _631
REMARK  245  A    between atoms: _631  and  _632
REMARK  246  A    between atoms: _632  and  _633
REMARK  247  A    between atoms: _637  and  _639
REMARK  248  A    between atoms: _639  and  _640
REMARK  249  A    between atoms: _639  and  _642
REMARK  250  A    between atoms: _642  and  _643
REMARK  251  A    between atoms: _648  and  _649
REMARK  252  A    between atoms: _651  and  _653
REMARK  253  A    between atoms: _653  and  _654
REMARK  254  A    between atoms: _653  and  _656
REMARK  255  A    between atoms: _656  and  _657
REMARK  256  A    between atoms: _662  and  _664
REMARK  257  A    between atoms: _664  and  _665
REMARK  258  A    between atoms: _664  and  _667
REMARK  259  A    between atoms: _667  and  _668
REMARK  260  A    between atoms: _671  and  _673
REMARK  261  A    between atoms: _673  and  _674
REMARK  262  A    between atoms: _677  and  _679
REMARK  263  A    between atoms: _679  and  _680
REMARK  264  A    between atoms: _679  and  _682
REMARK  265  A    between atoms: _682  and  _683
REMARK  266  A    between atoms: _686  and  _688
REMARK  267  A    between atoms: _688  and  _689
REMARK  268  A    between atoms: _688  and  _691
REMARK  269  A    between atoms: _694  and  _696
REMARK  270  A    between atoms: _696  and  _697
REMARK  271  A    between atoms: _696  and  _699
REMARK  272  A    between atoms: _699  and  _700
REMARK  273  A    between atoms: _700  and  _701
REMARK  274  A    between atoms: _704  and  _706
REMARK  275  A    between atoms: _706  and  _707
REMARK  276  A    between atoms: _706  and  _709
REMARK  277  A    between atoms: _709  and  _710
REMARK  278  A    between atoms: _715  and  _716
REMARK  279  A    between atoms: _718  and  _720
REMARK  280  A    between atoms: _720  and  _721
REMARK  281  A    between atoms: _720  and  _723
REMARK  282  A    between atoms: _723  and  _724
REMARK  283  A    between atoms: _724  and  _725
REMARK  284  A    between atoms: _725  and  _726
REMARK  285  A    between atoms: _735  and  _737
REMARK  286  A    between atoms: _737  and  _738
REMARK  287  A    between atoms: _737  and  _740
REMARK  288  A    between atoms: _740  and  _741
REMARK  289  A    between atoms: _746  and  _747
REMARK  290  A    between atoms: _749  and  _751
REMARK  291  A    between atoms: _751  and  _752
REMARK  292  A    between atoms: _751  and  _754
REMARK  293  A    between atoms: _754  and  _755
REMARK  294  A    between atoms: _758  and  _760
REMARK  295  A    between atoms: _760  and  _761
REMARK  296  A    between atoms: _760  and  _763
REMARK  297  A    between atoms: _763  and  _764
REMARK  298  A    between atoms: _766  and  _768
REMARK  299  A    between atoms: _768  and  _769
REMARK  300  A    between atoms: _768  and  _771
REMARK  301  A    between atoms: _771  and  _772
REMARK  302  A    between atoms: _778  and  _780
REMARK  303  A    between atoms: _780  and  _781
REMARK  304  A    between atoms: _780  and  _783
REMARK  305  A    between atoms: _783  and  _784
REMARK  306  A    between atoms: _784  and  _785
REMARK                            x       y       z     vdW  Elec       q    Type
REMARK                         _______ _______ _______ _____ _____    ______ ____
ROOT
ATOM      1  O   HOH     1      27.369  -7.070   2.024  0.00  0.00    +0.000 OA
ENDROOT
TORSDOF 0
REMARK  Name = ../refined-set-2016/4ca7/4ca7_pocket.pdb
REMARK  306 active torsions:
REMARK  status: ('A' for Active; 'I' for Inactive)
REMARK    1  A    between atoms: _1  and  _3
REMARK    2  A    between atoms: _3  and  _4
REMARK    3  A    between atoms: _3  and  _6
REMARK    4  A    between atoms: _6  and  _7
REMARK    5  A    between atoms: _7  and  _8
REMARK    6  A    between atoms: _8  and  _9
REMARK    7  A    between atoms: _9  and  _10
REMARK    8  A    between atoms: _14  and  _16
REMARK    9  A    between atoms: _16  and  _17
REMARK   10  A    between atoms: _16  and  _19
REMARK   11  A    between atoms: _19  and  _20
REMARK   12  A    between atoms: _20  and  _21
REMARK   13  A    between atoms: _24  and  _26
REMARK   14  A    between atoms: _26  and  _27
REMARK   15  A    between atoms: _26  and  _29
REMARK   16  A    between atoms: _29  and  _30
REMARK   17  A    between atoms: _30  and  _31
REMARK   18  A    between atoms: _34  and  _36
REMARK   19  A    between atoms: _36  and  _37
REMARK   20  A    between atoms: _36  and  _39
REMARK   21  A    between atoms: _39  and  _40
REMARK   22  A    between atoms: _45  and  _47
REMARK   23  A    between atoms: _47  and  _48
REMARK   24  A    between atoms: _47  and  _50
REMARK   25  A    between atoms: _50  and  _51
REMARK   26  A    between atoms: _61  and  _63
REMARK   27  A    between atoms: _63  and  _64
REMARK   28  A    between atoms: _63  and  _66
REMARK   29  A    between atoms: _66  and  _67
REMARK   30  A    between atoms: _67  and  _68
REMARK   31  A    between atoms: _73  and  _75
REMARK   32  A    between atoms: _75  and  _76
REMARK   33  A    between atoms: _75  and  _78
REMARK   34  A    between atoms: _78  and  _79
REMARK   35  A    between atoms: _79  and  _80
REMARK   36  A    between atoms: _85  and  _87
REMARK   37  A    between atoms: _87  and  _88
REMARK   38  A    between atoms: _87  and  _90
REMARK   39  A    between atoms: _90  and  _91
REMARK   40  A    between atoms: _93  and  _95
REMARK   41  A    between atoms: _95  and  _96
REMARK   42  A    between atoms: _95  and  _98
REMARK   43  A    between atoms: _101  and  _103
REMARK   44  A    between atoms: _103  and  _104
REMARK   45  A    between atoms: _103  and  _106
REMARK   46  A    between atoms: _108  and  _110
REMARK   47  A    between atoms: _110  and  _111
REMARK   48  A    between atoms: _110  and  _113
REMARK   49  A    between atoms: _113  and  _114
REMARK   50  A    between atoms: _119  and  _121
REMARK   51  A    between atoms: _121  and  _122
REMARK   52  A    between atoms: _125  and  _127
REMARK   53  A    between atoms: _127  and  _128
REMARK   54  A    between atoms: _127  and  _130
REMARK   55  A    between atoms: _130  and  _131
REMARK   56  A    between atoms: _133  and  _135
REMARK   57  A    between atoms: _135  and  _136
REMARK   58  A    between atoms: _139  and  _141
REMARK   59  A    between atoms: _141  and  _142
REMARK   60  A    between atoms: _141  and  _144
REMARK   61  A    between atoms: _144  and  _145
REMARK   62  A    between atoms: _155  and  _157
REMARK   63  A    between atoms: _157  and  _158
REMARK   64  A    between atoms: _157  and  _160
REMARK   65  A    between atoms: _160  and  _161
REMARK   66  A    between atoms: _164  and  _166
REMARK   67  A    between atoms: _166  and  _167
REMARK   68  A    between atoms: _166  and  _169
REMARK   69  A    between atoms: _169  and  _170
REMARK   70  A    between atoms: _175  and  _176
REMARK   71  A    between atoms: _178  and  _180
REMARK   72  A    between atoms: _180  and  _181
REMARK   73  A    between atoms: _180  and  _183
REMARK   74  A    between atoms: _183  and  _184
REMARK   75  A    between atoms: _184  and  _185
REMARK   76  A    between atoms: _185  and  _186
REMARK   77  A    between atoms: _195  and  _197
REMARK   78  A    between atoms: _197  and  _198
REMARK   79  A    between atoms: _197  and  _200
REMARK   80  A    between atoms: _200  and  _201
REMARK   81  A    between atoms: _204  and  _206
REMARK   82  A    between atoms: _206  and  _207
REMARK   83  A    between atoms: _206  and  _209
REMARK   84  A    between atoms: _209  and  _210
REMARK   85  A    between atoms: _210  and  _211
REMARK   86  A    between atoms: _211  and  _212
REMARK   87  A    between atoms: _212  and  _213
REMARK   88  A    between atoms: _217  and  _219
REMARK   89  A    between atoms: _219  and  _220
REMARK   90  A    between atoms: _219  and  _222
REMARK   91  A    between atoms: _222  and  _223
REMARK   92  A    between atoms: _223  and  _224
REMARK   93  A    between atoms: _229  and  _231
REMARK   94  A    between atoms: _231  and  _232
REMARK   95  A    between atoms: _231  and  _234
REMARK   96  A    between atoms: _234  and  _235
REMARK   97  A    between atoms: _235  and  _236
REMARK   98  A    between atoms: _236  and  _237
REMARK   99  A    between atoms: _246  and  _248
REMARK  100  A    between atoms: _248  and  _249
REMARK  101  A    between atoms: _248  and  _251
REMARK  102  A    between atoms: _251  and  _252
REMARK  103  A    between atoms: _252  and  _253
REMARK  104  A    between atoms: _258  and  _260
REMARK  105  A    between atoms: _260  and  _261
REMARK  106  A    between atoms: _260  and  _263
REMARK  107  A    between atoms: _263  and  _264
REMARK  108  A    between atoms: _267  and  _269
REMARK  109  A    between atoms: _269  and  _270
REMARK  110  A    between atoms: _269  and  _272
REMARK  111  A    between atoms: _272  and  _273
REMARK  112  A    between atoms: _273  and  _274
REMARK  113  A    between atoms: _279  and  _281
REMARK  114  A    between atoms: _281  and  _282
REMARK  115  A    between atoms: _281  and  _284
REMARK  116  A    between atoms: _284  and  _285
REMARK  117  A    between atoms: _288  and  _290
REMARK  118  A    between atoms: _290  and  _291
REMARK  119  A    between atoms: _290  and  _293
REMARK  120  A    between atoms: _293  and  _294
REMARK  121  A    between atoms: _300  and  _302
REMARK  122  A    between atoms: _302  and  _303
REMARK  123  A    between atoms: _302  and  _305
REMARK  124  A    between atoms: _305  and  _306
REMARK  125  A    between atoms: _309  and  _311
REMARK  126  A    between atoms: _311  and  _312
REMARK  127  A    between atoms: _311  and  _314
REMARK  128  A    between atoms: _317  and  _319
REMARK  129  A    between atoms: _319  and  _320
REMARK  130  A    between atoms: _319  and  _322
REMARK  131  A    between atoms: _322  and  _323
REMARK  132  A    between atoms: _328  and  _330
REMARK  133  A    between atoms: _341  and  _344
REMARK  134  A    between atoms: _344  and  _345
REMARK  135  A    between atoms: _345  and  _346
REMARK  136  A    between atoms: _351  and  _354
REMARK  137  A    between atoms: _354  and  _355
REMARK  138  A    between atoms: _365  and  _366
REMARK  139  A    between atoms: _374  and  _376
REMARK  140  A    between atoms: _376  and  _377
REMARK  141  A    between atoms: _376  and  _379
REMARK  142  A    between atoms: _379  and  _380
REMARK  143  A    between atoms: _383  and  _385
REMARK  144  A    between atoms: _385  and  _386
REMARK  145  A    between atoms: _385  and  _388
REMARK  146  A    between atoms: _388  and  _389
REMARK  147  A    between atoms: _394  and  _395
REMARK  148  A    between atoms: _397  and  _399
REMARK  149  A    between atoms: _399  and  _400
REMARK  150  A    between atoms: _399  and  _402
REMARK  151  A    between atoms: _402  and  _403
REMARK  152  A    between atoms: _409  and  _411
REMARK  153  A    between atoms: _411  and  _412
REMARK  154  A    between atoms: _411  and  _414
REMARK  155  A    between atoms: _414  and  _415
REMARK  156  A    between atoms: _420  and  _421
REMARK  157  A    between atoms: _423  and  _425
REMARK  158  A    between atoms: _425  and  _426
REMARK  159  A    between atoms: _425  and  _428
REMARK  160  A    between atoms: _428  and  _429
REMARK  161  A    between atoms: _429  and  _430
REMARK  162  A    between atoms: _430  and  _431
REMARK  163  A    between atoms: _440  and  _442
REMARK  164  A    between atoms: _442  and  _443
REMARK  165  A    between atoms: _442  and  _445
REMARK  166  A    between atoms: _445  and  _446
REMARK  167  A    between atoms: _449  and  _451
REMARK  168  A    between atoms: _451  and  _452
REMARK  169  A    between atoms: _454  and  _456
REMARK  170  A    between atoms: _456  and  _457
REMARK  171  A    between atoms: _456  and  _459
REMARK  172  A    between atoms: _459  and  _460
REMARK  173  A    between atoms: _466  and  _467
REMARK  174  A    between atoms: _472  and  _474
REMARK  175  A    between atoms: _474  and  _475
REMARK  176  A    between atoms: _477  and  _479
REMARK  177  A    between atoms: _479  and  _480
REMARK  178  A    between atoms: _479  and  _482
REMARK  179  A    between atoms: _482  and  _483
REMARK  180  A    between atoms: _489  and  _491
REMARK  181  A    between atoms: _491  and  _492
REMARK  182  A    between atoms: _491  and  _494
REMARK  183  A    between atoms: _494  and  _495
REMARK  184  A    between atoms: _500  and  _502
REMARK  185  A    between atoms: _502  and  _503
REMARK  186  A    between atoms: _502  and  _505
REMARK  187  A    between atoms: _505  and  _506
REMARK  188  A    between atoms: _506  and  _507
REMARK  189  A    between atoms: _507  and  _508
REMARK  190  A    between atoms: _508  and  ZN_790
REMARK  191  A    between atoms: _510  and  _512
REMARK  192  A    between atoms: _512  and  _513
REMARK  193  A    between atoms: _516  and  _518
REMARK  194  A    between atoms: _518  and  _519
REMARK  195  A    between atoms: _521  and  _523
REMARK  196  A    between atoms: _523  and  _524
REMARK  197  A    between atoms: _523  and  _526
REMARK  198  A    between atoms: _526  and  _527
REMARK  199  A    between atoms: _530  and  _532
REMARK  200  A    between atoms: _532  and  _533
REMARK  201  A    between atoms: _532  and  _535
REMARK  202  A    between atoms: _538  and  _540
REMARK  203  A    between atoms: _540  and  _541
REMARK  204  A    between atoms: _540  and  _543
REMARK  205  A    between atoms: _543  and  _544
REMARK  206  A    between atoms: _546  and  _548
REMARK  207  A    between atoms: _548  and  _549
REMARK  208  A    between atoms: _548  and  _551
REMARK  209  A    between atoms: _551  and  _552
REMARK  210  A    between atoms: _555  and  _557
REMARK  211  A    between atoms: _557  and  _558
REMARK  212  A    between atoms: _557  and  _560
REMARK  213  A    between atoms: _560  and  _561
REMARK  214  A    between atoms: _563  and  _565
REMARK  215  A    between atoms: _565  and  _566
REMARK  216  A    between atoms: _565  and  _568
REMARK  217  A    between atoms: _568  and  _569
REMARK  218  A    between atoms: _572  and  _574
REMARK  219  A    between atoms: _574  and  _575
REMARK  220  A    between atoms: _574  and  _577
REMARK  221  A    between atoms: _577  and  _578
REMARK  222  A    between atoms: _578  and  _579
REMARK  223  A    between atoms: _579  and  _580
REMARK  224  A    between atoms: _580  and  _581
REMARK  225  A    between atoms: _585  and  _587
REMARK  226  A    between atoms: _587  and  _588
REMARK  227  A    between atoms: _587  and  _590
REMARK  228  A    between atoms: _590  and  _591
REMARK  229  A    between atoms: _597  and  _599
REMARK  230  A    between atoms: _599  and  _600
REMARK  231  A    between atoms: _599  and  _602
REMARK  232  A    between atoms: _602  and  _603
REMARK  233  A    between atoms: _609  and  _611
REMARK  234  A    between atoms: _611  and  _612
REMARK  235  A    between atoms: _615  and  _617
REMARK  236  A    between atoms: _617  and  _618
REMARK  237  A    between atoms: _617  and  _620
REMARK  238  A    between atoms: _620  and  _621
REMARK  239  A    between atoms: _621  and  _622
REMARK  240  A    between atoms: _624  and  _626
REMARK  241  A    between atoms: _626  and  _627
REMARK  242  A    between atoms: _626  and  _629
REMARK  243  A    between atoms: _629  and  _630
REMARK  244  A    between atoms: _630  and  _631
REMARK  245  A    between atoms: _631  and  _632
REMARK  246  A    between atoms: _632  and  _633
REMARK  247  A    between atoms: _637  and  _639
REMARK  248  A    between atoms: _639  and  _640
REMARK  249  A    between atoms: _639  and  _642
REMARK  250  A    between atoms: _642  and  _643
REMARK  251  A    between atoms: _648  and  _649
REMARK  252  A    between atoms: _651  and  _653
REMARK  253  A    between atoms: _653  and  _654
REMARK  254  A    between atoms: _653  and  _656
REMARK  255  A    between atoms: _656  and  _657
REMARK  256  A    between atoms: _662  and  _664
REMARK  257  A    between atoms: _664  and  _665
REMARK  258  A    between atoms: _664  and  _667
REMARK  259  A    between atoms: _667  and  _668
REMARK  260  A    between atoms: _671  and  _673
REMARK  261  A    between atoms: _673  and  _674
REMARK  262  A    between atoms: _677  and  _679
REMARK  263  A    between atoms: _679  and  _680
REMARK  264  A    between atoms: _679  and  _682
REMARK  265  A    between atoms: _682  and  _683
REMARK  266  A    between atoms: _686  and  _688
REMARK  267  A    between atoms: _688  and  _689
REMARK  268  A    between atoms: _688  and  _691
REMARK  269  A    between atoms: _694  and  _696
REMARK  270  A    between atoms: _696  and  _697
REMARK  271  A    between atoms: _696  and  _699
REMARK  272  A    between atoms: _699  and  _700
REMARK  273  A    between atoms: _700  and  _701
REMARK  274  A    between atoms: _704  and  _706
REMARK  275  A    between atoms: _706  and  _707
REMARK  276  A    between atoms: _706  and  _709
REMARK  277  A    between atoms: _709  and  _710
REMARK  278  A    between atoms: _715  and  _716
REMARK  279  A    between atoms: _718  and  _720
REMARK  280  A    between atoms: _720  and  _721
REMARK  281  A    between atoms: _720  and  _723
REMARK  282  A    between atoms: _723  and  _724
REMARK  283  A    between atoms: _724  and  _725
REMARK  284  A    between atoms: _725  and  _726
REMARK  285  A    between atoms: _735  and  _737
REMARK  286  A    between atoms: _737  and  _738
REMARK  287  A    between atoms: _737  and  _740
REMARK  288  A    between atoms: _740  and  _741
REMARK  289  A    between atoms: _746  and  _747
REMARK  290  A    between atoms: _749  and  _751
REMARK  291  A    between atoms: _751  and  _752
REMARK  292  A    between atoms: _751  and  _754
REMARK  293  A    between atoms: _754  and  _755
REMARK  294  A    between atoms: _758  and  _760
REMARK  295  A    between atoms: _760  and  _761
REMARK  296  A    between atoms: _760  and  _763
REMARK  297  A    between atoms: _763  and  _764
REMARK  298  A    between atoms: _766  and  _768
REMARK  299  A    between atoms: _768  and  _769
REMARK  300  A    between atoms: _768  and  _771
REMARK  301  A    between atoms: _771  and  _772
REMARK  302  A    between atoms: _778  and  _780
REMARK  303  A    between atoms: _780  and  _781
REMARK  304  A    between atoms: _780  and  _783
REMARK  305  A    between atoms: _783  and  _784
REMARK  306  A    between atoms: _784  and  _785
REMARK                            x       y       z     vdW  Elec       q    Type
REMARK                         _______ _______ _______ _____ _____    ______ ____
ROOT
ATOM      1  O   HOH     1      30.669  -9.135   3.141  0.00  0.00    +0.000 OA
ENDROOT
TORSDOF 0
REMARK  Name = ../refined-set-2016/4ca7/4ca7_pocket.pdb
REMARK  306 active torsions:
REMARK  status: ('A' for Active; 'I' for Inactive)
REMARK    1  A    between atoms: _1  and  _3
REMARK    2  A    between atoms: _3  and  _4
REMARK    3  A    between atoms: _3  and  _6
REMARK    4  A    between atoms: _6  and  _7
REMARK    5  A    between atoms: _7  and  _8
REMARK    6  A    between atoms: _8  and  _9
REMARK    7  A    between atoms: _9  and  _10
REMARK    8  A    between atoms: _14  and  _16
REMARK    9  A    between atoms: _16  and  _17
REMARK   10  A    between atoms: _16  and  _19
REMARK   11  A    between atoms: _19  and  _20
REMARK   12  A    between atoms: _20  and  _21
REMARK   13  A    between atoms: _24  and  _26
REMARK   14  A    between atoms: _26  and  _27
REMARK   15  A    between atoms: _26  and  _29
REMARK   16  A    between atoms: _29  and  _30
REMARK   17  A    between atoms: _30  and  _31
REMARK   18  A    between atoms: _34  and  _36
REMARK   19  A    between atoms: _36  and  _37
REMARK   20  A    between atoms: _36  and  _39
REMARK   21  A    between atoms: _39  and  _40
REMARK   22  A    between atoms: _45  and  _47
REMARK   23  A    between atoms: _47  and  _48
REMARK   24  A    between atoms: _47  and  _50
REMARK   25  A    between atoms: _50  and  _51
REMARK   26  A    between atoms: _61  and  _63
REMARK   27  A    between atoms: _63  and  _64
REMARK   28  A    between atoms: _63  and  _66
REMARK   29  A    between atoms: _66  and  _67
REMARK   30  A    between atoms: _67  and  _68
REMARK   31  A    between atoms: _73  and  _75
REMARK   32  A    between atoms: _75  and  _76
REMARK   33  A    between atoms: _75  and  _78
REMARK   34  A    between atoms: _78  and  _79
REMARK   35  A    between atoms: _79  and  _80
REMARK   36  A    between atoms: _85  and  _87
REMARK   37  A    between atoms: _87  and  _88
REMARK   38  A    between atoms: _87  and  _90
REMARK   39  A    between atoms: _90  and  _91
REMARK   40  A    between atoms: _93  and  _95
REMARK   41  A    between atoms: _95  and  _96
REMARK   42  A    between atoms: _95  and  _98
REMARK   43  A    between atoms: _101  and  _103
REMARK   44  A    between atoms: _103  and  _104
REMARK   45  A    between atoms: _103  and  _106
REMARK   46  A    between atoms: _108  and  _110
REMARK   47  A    between atoms: _110  and  _111
REMARK   48  A    between atoms: _110  and  _113
REMARK   49  A    between atoms: _113  and  _114
REMARK   50  A    between atoms: _119  and  _121
REMARK   51  A    between atoms: _121  and  _122
REMARK   52  A    between atoms: _125  and  _127
REMARK   53  A    between atoms: _127  and  _128
REMARK   54  A    between atoms: _127  and  _130
REMARK   55  A    between atoms: _130  and  _131
REMARK   56  A    between atoms: _133  and  _135
REMARK   57  A    between atoms: _135  and  _136
REMARK   58  A    between atoms: _139  and  _141
REMARK   59  A    between atoms: _141  and  _142
REMARK   60  A    between atoms: _141  and  _144
REMARK   61  A    between atoms: _144  and  _145
REMARK   62  A    between atoms: _155  and  _157
REMARK   63  A    between atoms: _157  and  _158
REMARK   64  A    between atoms: _157  and  _160
REMARK   65  A    between atoms: _160  and  _161
REMARK   66  A    between atoms: _164  and  _166
REMARK   67  A    between atoms: _166  and  _167
REMARK   68  A    between atoms: _166  and  _169
REMARK   69  A    between atoms: _169  and  _170
REMARK   70  A    between atoms: _175  and  _176
REMARK   71  A    between atoms: _178  and  _180
REMARK   72  A    between atoms: _180  and  _181
REMARK   73  A    between atoms: _180  and  _183
REMARK   74  A    between atoms: _183  and  _184
REMARK   75  A    between atoms: _184  and  _185
REMARK   76  A    between atoms: _185  and  _186
REMARK   77  A    between atoms: _195  and  _197
REMARK   78  A    between atoms: _197  and  _198
REMARK   79  A    between atoms: _197  and  _200
REMARK   80  A    between atoms: _200  and  _201
REMARK   81  A    between atoms: _204  and  _206
REMARK   82  A    between atoms: _206  and  _207
REMARK   83  A    between atoms: _206  and  _209
REMARK   84  A    between atoms: _209  and  _210
REMARK   85  A    between atoms: _210  and  _211
REMARK   86  A    between atoms: _211  and  _212
REMARK   87  A    between atoms: _212  and  _213
REMARK   88  A    between atoms: _217  and  _219
REMARK   89  A    between atoms: _219  and  _220
REMARK   90  A    between atoms: _219  and  _222
REMARK   91  A    between atoms: _222  and  _223
REMARK   92  A    between atoms: _223  and  _224
REMARK   93  A    between atoms: _229  and  _231
REMARK   94  A    between atoms: _231  and  _232
REMARK   95  A    between atoms: _231  and  _234
REMARK   96  A    between atoms: _234  and  _235
REMARK   97  A    between atoms: _235  and  _236
REMARK   98  A    between atoms: _236  and  _237
REMARK   99  A    between atoms: _246  and  _248
REMARK  100  A    between atoms: _248  and  _249
REMARK  101  A    between atoms: _248  and  _251
REMARK  102  A    between atoms: _251  and  _252
REMARK  103  A    between atoms: _252  and  _253
REMARK  104  A    between atoms: _258  and  _260
REMARK  105  A    between atoms: _260  and  _261
REMARK  106  A    between atoms: _260  and  _263
REMARK  107  A    between atoms: _263  and  _264
REMARK  108  A    between atoms: _267  and  _269
REMARK  109  A    between atoms: _269  and  _270
REMARK  110  A    between atoms: _269  and  _272
REMARK  111  A    between atoms: _272  and  _273
REMARK  112  A    between atoms: _273  and  _274
REMARK  113  A    between atoms: _279  and  _281
REMARK  114  A    between atoms: _281  and  _282
REMARK  115  A    between atoms: _281  and  _284
REMARK  116  A    between atoms: _284  and  _285
REMARK  117  A    between atoms: _288  and  _290
REMARK  118  A    between atoms: _290  and  _291
REMARK  119  A    between atoms: _290  and  _293
REMARK  120  A    between atoms: _293  and  _294
REMARK  121  A    between atoms: _300  and  _302
REMARK  122  A    between atoms: _302  and  _303
REMARK  123  A    between atoms: _302  and  _305
REMARK  124  A    between atoms: _305  and  _306
REMARK  125  A    between atoms: _309  and  _311
REMARK  126  A    between atoms: _311  and  _312
REMARK  127  A    between atoms: _311  and  _314
REMARK  128  A    between atoms: _317  and  _319
REMARK  129  A    between atoms: _319  and  _320
REMARK  130  A    between atoms: _319  and  _322
REMARK  131  A    between atoms: _322  and  _323
REMARK  132  A    between atoms: _328  and  _330
REMARK  133  A    between atoms: _341  and  _344
REMARK  134  A    between atoms: _344  and  _345
REMARK  135  A    between atoms: _345  and  _346
REMARK  136  A    between atoms: _351  and  _354
REMARK  137  A    between atoms: _354  and  _355
REMARK  138  A    between atoms: _365  and  _366
REMARK  139  A    between atoms: _374  and  _376
REMARK  140  A    between atoms: _376  and  _377
REMARK  141  A    between atoms: _376  and  _379
REMARK  142  A    between atoms: _379  and  _380
REMARK  143  A    between atoms: _383  and  _385
REMARK  144  A    between atoms: _385  and  _386
REMARK  145  A    between atoms: _385  and  _388
REMARK  146  A    between atoms: _388  and  _389
REMARK  147  A    between atoms: _394  and  _395
REMARK  148  A    between atoms: _397  and  _399
REMARK  149  A    between atoms: _399  and  _400
REMARK  150  A    between atoms: _399  and  _402
REMARK  151  A    between atoms: _402  and  _403
REMARK  152  A    between atoms: _409  and  _411
REMARK  153  A    between atoms: _411  and  _412
REMARK  154  A    between atoms: _411  and  _414
REMARK  155  A    between atoms: _414  and  _415
REMARK  156  A    between atoms: _420  and  _421
REMARK  157  A    between atoms: _423  and  _425
REMARK  158  A    between atoms: _425  and  _426
REMARK  159  A    between atoms: _425  and  _428
REMARK  160  A    between atoms: _428  and  _429
REMARK  161  A    between atoms: _429  and  _430
REMARK  162  A    between atoms: _430  and  _431
REMARK  163  A    between atoms: _440  and  _442
REMARK  164  A    between atoms: _442  and  _443
REMARK  165  A    between atoms: _442  and  _445
REMARK  166  A    between atoms: _445  and  _446
REMARK  167  A    between atoms: _449  and  _451
REMARK  168  A    between atoms: _451  and  _452
REMARK  169  A    between atoms: _454  and  _456
REMARK  170  A    between atoms: _456  and  _457
REMARK  171  A    between atoms: _456  and  _459
REMARK  172  A    between atoms: _459  and  _460
REMARK  173  A    between atoms: _466  and  _467
REMARK  174  A    between atoms: _472  and  _474
REMARK  175  A    between atoms: _474  and  _475
REMARK  176  A    between atoms: _477  and  _479
REMARK  177  A    between atoms: _479  and  _480
REMARK  178  A    between atoms: _479  and  _482
REMARK  179  A    between atoms: _482  and  _483
REMARK  180  A    between atoms: _489  and  _491
REMARK  181  A    between atoms: _491  and  _492
REMARK  182  A    between atoms: _491  and  _494
REMARK  183  A    between atoms: _494  and  _495
REMARK  184  A    between atoms: _500  and  _502
REMARK  185  A    between atoms: _502  and  _503
REMARK  186  A    between atoms: _502  and  _505
REMARK  187  A    between atoms: _505  and  _506
REMARK  188  A    between atoms: _506  and  _507
REMARK  189  A    between atoms: _507  and  _508
REMARK  190  A    between atoms: _508  and  ZN_790
REMARK  191  A    between atoms: _510  and  _512
REMARK  192  A    between atoms: _512  and  _513
REMARK  193  A    between atoms: _516  and  _518
REMARK  194  A    between atoms: _518  and  _519
REMARK  195  A    between atoms: _521  and  _523
REMARK  196  A    between atoms: _523  and  _524
REMARK  197  A    between atoms: _523  and  _526
REMARK  198  A    between atoms: _526  and  _527
REMARK  199  A    between atoms: _530  and  _532
REMARK  200  A    between atoms: _532  and  _533
REMARK  201  A    between atoms: _532  and  _535
REMARK  202  A    between atoms: _538  and  _540
REMARK  203  A    between atoms: _540  and  _541
REMARK  204  A    between atoms: _540  and  _543
REMARK  205  A    between atoms: _543  and  _544
REMARK  206  A    between atoms: _546  and  _548
REMARK  207  A    between atoms: _548  and  _549
REMARK  208  A    between atoms: _548  and  _551
REMARK  209  A    between atoms: _551  and  _552
REMARK  210  A    between atoms: _555  and  _557
REMARK  211  A    between atoms: _557  and  _558
REMARK  212  A    between atoms: _557  and  _560
REMARK  213  A    between atoms: _560  and  _561
REMARK  214  A    between atoms: _563  and  _565
REMARK  215  A    between atoms: _565  and  _566
REMARK  216  A    between atoms: _565  and  _568
REMARK  217  A    between atoms: _568  and  _569
REMARK  218  A    between atoms: _572  and  _574
REMARK  219  A    between atoms: _574  and  _575
REMARK  220  A    between atoms: _574  and  _577
REMARK  221  A    between atoms: _577  and  _578
REMARK  222  A    between atoms: _578  and  _579
REMARK  223  A    between atoms: _579  and  _580
REMARK  224  A    between atoms: _580  and  _581
REMARK  225  A    between atoms: _585  and  _587
REMARK  226  A    between atoms: _587  and  _588
REMARK  227  A    between atoms: _587  and  _590
REMARK  228  A    between atoms: _590  and  _591
REMARK  229  A    between atoms: _597  and  _599
REMARK  230  A    between atoms: _599  and  _600
REMARK  231  A    between atoms: _599  and  _602
REMARK  232  A    between atoms: _602  and  _603
REMARK  233  A    between atoms: _609  and  _611
REMARK  234  A    between atoms: _611  and  _612
REMARK  235  A    between atoms: _615  and  _617
REMARK  236  A    between atoms: _617  and  _618
REMARK  237  A    between atoms: _617  and  _620
REMARK  238  A    between atoms: _620  and  _621
REMARK  239  A    between atoms: _621  and  _622
REMARK  240  A    between atoms: _624  and  _626
REMARK  241  A    between atoms: _626  and  _627
REMARK  242  A    between atoms: _626  and  _629
REMARK  243  A    between atoms: _629  and  _630
REMARK  244  A    between atoms: _630  and  _631
REMARK  245  A    between atoms: _631  and  _632
REMARK  246  A    between atoms: _632  and  _633
REMARK  247  A    between atoms: _637  and  _639
REMARK  248  A    between atoms: _639  and  _640
REMARK  249  A    between atoms: _639  and  _642
REMARK  250  A    between atoms: _642  and  _643
REMARK  251  A    between atoms: _648  and  _649
REMARK  252  A    between atoms: _651  and  _653
REMARK  253  A    between atoms: _653  and  _654
REMARK  254  A    between atoms: _653  and  _656
REMARK  255  A    between atoms: _656  and  _657
REMARK  256  A    between atoms: _662  and  _664
REMARK  257  A    between atoms: _664  and  _665
REMARK  258  A    between atoms: _664  and  _667
REMARK  259  A    between atoms: _667  and  _668
REMARK  260  A    between atoms: _671  and  _673
REMARK  261  A    between atoms: _673  and  _674
REMARK  262  A    between atoms: _677  and  _679
REMARK  263  A    between atoms: _679  and  _680
REMARK  264  A    between atoms: _679  and  _682
REMARK  265  A    between atoms: _682  and  _683
REMARK  266  A    between atoms: _686  and  _688
REMARK  267  A    between atoms: _688  and  _689
REMARK  268  A    between atoms: _688  and  _691
REMARK  269  A    between atoms: _694  and  _696
REMARK  270  A    between atoms: _696  and  _697
REMARK  271  A    between atoms: _696  and  _699
REMARK  272  A    between atoms: _699  and  _700
REMARK  273  A    between atoms: _700  and  _701
REMARK  274  A    between atoms: _704  and  _706
REMARK  275  A    between atoms: _706  and  _707
REMARK  276  A    between atoms: _706  and  _709
REMARK  277  A    between atoms: _709  and  _710
REMARK  278  A    between atoms: _715  and  _716
REMARK  279  A    between atoms: _718  and  _720
REMARK  280  A    between atoms: _720  and  _721
REMARK  281  A    between atoms: _720  and  _723
REMARK  282  A    between atoms: _723  and  _724
REMARK  283  A    between atoms: _724  and  _725
REMARK  284  A    between atoms: _725  and  _726
REMARK  285  A    between atoms: _735  and  _737
REMARK  286  A    between atoms: _737  and  _738
REMARK  287  A    between atoms: _737  and  _740
REMARK  288  A    between atoms: _740  and  _741
REMARK  289  A    between atoms: _746  and  _747
REMARK  290  A    between atoms: _749  and  _751
REMARK  291  A    between atoms: _751  and  _752
REMARK  292  A    between atoms: _751  and  _754
REMARK  293  A    between atoms: _754  and  _755
REMARK  294  A    between atoms: _758  and  _760
REMARK  295  A    between atoms: _760  and  _761
REMARK  296  A    between atoms: _760  and  _763
REMARK  297  A    between atoms: _763  and  _764
REMARK  298  A    between atoms: _766  and  _768
REMARK  299  A    between atoms: _768  and  _769
REMARK  300  A    between atoms: _768  and  _771
REMARK  301  A    between atoms: _771  and  _772
REMARK  302  A    between atoms: _778  and  _780
REMARK  303  A    between atoms: _780  and  _781
REMARK  304  A    between atoms: _780  and  _783
REMARK  305  A    between atoms: _783  and  _784
REMARK  306  A    between atoms: _784  and  _785
REMARK                            x       y       z     vdW  Elec       q    Type
REMARK                         _______ _______ _______ _____ _____    ______ ____
ROOT
ATOM      1  O   HOH     1      30.294  -5.592   2.769  0.00  0.00    +0.000 OA
ENDROOT
TORSDOF 0
REMARK  Name = ../refined-set-2016/4ca7/4ca7_pocket.pdb
REMARK  306 active torsions:
REMARK  status: ('A' for Active; 'I' for Inactive)
REMARK    1  A    between atoms: _1  and  _3
REMARK    2  A    between atoms: _3  and  _4
REMARK    3  A    between atoms: _3  and  _6
REMARK    4  A    between atoms: _6  and  _7
REMARK    5  A    between atoms: _7  and  _8
REMARK    6  A    between atoms: _8  and  _9
REMARK    7  A    between atoms: _9  and  _10
REMARK    8  A    between atoms: _14  and  _16
REMARK    9  A    between atoms: _16  and  _17
REMARK   10  A    between atoms: _16  and  _19
REMARK   11  A    between atoms: _19  and  _20
REMARK   12  A    between atoms: _20  and  _21
REMARK   13  A    between atoms: _24  and  _26
REMARK   14  A    between atoms: _26  and  _27
REMARK   15  A    between atoms: _26  and  _29
REMARK   16  A    between atoms: _29  and  _30
REMARK   17  A    between atoms: _30  and  _31
REMARK   18  A    between atoms: _34  and  _36
REMARK   19  A    between atoms: _36  and  _37
REMARK   20  A    between atoms: _36  and  _39
REMARK   21  A    between atoms: _39  and  _40
REMARK   22  A    between atoms: _45  and  _47
REMARK   23  A    between atoms: _47  and  _48
REMARK   24  A    between atoms: _47  and  _50
REMARK   25  A    between atoms: _50  and  _51
REMARK   26  A    between atoms: _61  and  _63
REMARK   27  A    between atoms: _63  and  _64
REMARK   28  A    between atoms: _63  and  _66
REMARK   29  A    between atoms: _66  and  _67
REMARK   30  A    between atoms: _67  and  _68
REMARK   31  A    between atoms: _73  and  _75
REMARK   32  A    between atoms: _75  and  _76
REMARK   33  A    between atoms: _75  and  _78
REMARK   34  A    between atoms: _78  and  _79
REMARK   35  A    between atoms: _79  and  _80
REMARK   36  A    between atoms: _85  and  _87
REMARK   37  A    between atoms: _87  and  _88
REMARK   38  A    between atoms: _87  and  _90
REMARK   39  A    between atoms: _90  and  _91
REMARK   40  A    between atoms: _93  and  _95
REMARK   41  A    between atoms: _95  and  _96
REMARK   42  A    between atoms: _95  and  _98
REMARK   43  A    between atoms: _101  and  _103
REMARK   44  A    between atoms: _103  and  _104
REMARK   45  A    between atoms: _103  and  _106
REMARK   46  A    between atoms: _108  and  _110
REMARK   47  A    between atoms: _110  and  _111
REMARK   48  A    between atoms: _110  and  _113
REMARK   49  A    between atoms: _113  and  _114
REMARK   50  A    between atoms: _119  and  _121
REMARK   51  A    between atoms: _121  and  _122
REMARK   52  A    between atoms: _125  and  _127
REMARK   53  A    between atoms: _127  and  _128
REMARK   54  A    between atoms: _127  and  _130
REMARK   55  A    between atoms: _130  and  _131
REMARK   56  A    between atoms: _133  and  _135
REMARK   57  A    between atoms: _135  and  _136
REMARK   58  A    between atoms: _139  and  _141
REMARK   59  A    between atoms: _141  and  _142
REMARK   60  A    between atoms: _141  and  _144
REMARK   61  A    between atoms: _144  and  _145
REMARK   62  A    between atoms: _155  and  _157
REMARK   63  A    between atoms: _157  and  _158
REMARK   64  A    between atoms: _157  and  _160
REMARK   65  A    between atoms: _160  and  _161
REMARK   66  A    between atoms: _164  and  _166
REMARK   67  A    between atoms: _166  and  _167
REMARK   68  A    between atoms: _166  and  _169
REMARK   69  A    between atoms: _169  and  _170
REMARK   70  A    between atoms: _175  and  _176
REMARK   71  A    between atoms: _178  and  _180
REMARK   72  A    between atoms: _180  and  _181
REMARK   73  A    between atoms: _180  and  _183
REMARK   74  A    between atoms: _183  and  _184
REMARK   75  A    between atoms: _184  and  _185
REMARK   76  A    between atoms: _185  and  _186
REMARK   77  A    between atoms: _195  and  _197
REMARK   78  A    between atoms: _197  and  _198
REMARK   79  A    between atoms: _197  and  _200
REMARK   80  A    between atoms: _200  and  _201
REMARK   81  A    between atoms: _204  and  _206
REMARK   82  A    between atoms: _206  and  _207
REMARK   83  A    between atoms: _206  and  _209
REMARK   84  A    between atoms: _209  and  _210
REMARK   85  A    between atoms: _210  and  _211
REMARK   86  A    between atoms: _211  and  _212
REMARK   87  A    between atoms: _212  and  _213
REMARK   88  A    between atoms: _217  and  _219
REMARK   89  A    between atoms: _219  and  _220
REMARK   90  A    between atoms: _219  and  _222
REMARK   91  A    between atoms: _222  and  _223
REMARK   92  A    between atoms: _223  and  _224
REMARK   93  A    between atoms: _229  and  _231
REMARK   94  A    between atoms: _231  and  _232
REMARK   95  A    between atoms: _231  and  _234
REMARK   96  A    between atoms: _234  and  _235
REMARK   97  A    between atoms: _235  and  _236
REMARK   98  A    between atoms: _236  and  _237
REMARK   99  A    between atoms: _246  and  _248
REMARK  100  A    between atoms: _248  and  _249
REMARK  101  A    between atoms: _248  and  _251
REMARK  102  A    between atoms: _251  and  _252
REMARK  103  A    between atoms: _252  and  _253
REMARK  104  A    between atoms: _258  and  _260
REMARK  105  A    between atoms: _260  and  _261
REMARK  106  A    between atoms: _260  and  _263
REMARK  107  A    between atoms: _263  and  _264
REMARK  108  A    between atoms: _267  and  _269
REMARK  109  A    between atoms: _269  and  _270
REMARK  110  A    between atoms: _269  and  _272
REMARK  111  A    between atoms: _272  and  _273
REMARK  112  A    between atoms: _273  and  _274
REMARK  113  A    between atoms: _279  and  _281
REMARK  114  A    between atoms: _281  and  _282
REMARK  115  A    between atoms: _281  and  _284
REMARK  116  A    between atoms: _284  and  _285
REMARK  117  A    between atoms: _288  and  _290
REMARK  118  A    between atoms: _290  and  _291
REMARK  119  A    between atoms: _290  and  _293
REMARK  120  A    between atoms: _293  and  _294
REMARK  121  A    between atoms: _300  and  _302
REMARK  122  A    between atoms: _302  and  _303
REMARK  123  A    between atoms: _302  and  _305
REMARK  124  A    between atoms: _305  and  _306
REMARK  125  A    between atoms: _309  and  _311
REMARK  126  A    between atoms: _311  and  _312
REMARK  127  A    between atoms: _311  and  _314
REMARK  128  A    between atoms: _317  and  _319
REMARK  129  A    between atoms: _319  and  _320
REMARK  130  A    between atoms: _319  and  _322
REMARK  131  A    between atoms: _322  and  _323
REMARK  132  A    between atoms: _328  and  _330
REMARK  133  A    between atoms: _341  and  _344
REMARK  134  A    between atoms: _344  and  _345
REMARK  135  A    between atoms: _345  and  _346
REMARK  136  A    between atoms: _351  and  _354
REMARK  137  A    between atoms: _354  and  _355
REMARK  138  A    between atoms: _365  and  _366
REMARK  139  A    between atoms: _374  and  _376
REMARK  140  A    between atoms: _376  and  _377
REMARK  141  A    between atoms: _376  and  _379
REMARK  142  A    between atoms: _379  and  _380
REMARK  143  A    between atoms: _383  and  _385
REMARK  144  A    between atoms: _385  and  _386
REMARK  145  A    between atoms: _385  and  _388
REMARK  146  A    between atoms: _388  and  _389
REMARK  147  A    between atoms: _394  and  _395
REMARK  148  A    between atoms: _397  and  _399
REMARK  149  A    between atoms: _399  and  _400
REMARK  150  A    between atoms: _399  and  _402
REMARK  151  A    between atoms: _402  and  _403
REMARK  152  A    between atoms: _409  and  _411
REMARK  153  A    between atoms: _411  and  _412
REMARK  154  A    between atoms: _411  and  _414
REMARK  155  A    between atoms: _414  and  _415
REMARK  156  A    between atoms: _420  and  _421
REMARK  157  A    between atoms: _423  and  _425
REMARK  158  A    between atoms: _425  and  _426
REMARK  159  A    between atoms: _425  and  _428
REMARK  160  A    between atoms: _428  and  _429
REMARK  161  A    between atoms: _429  and  _430
REMARK  162  A    between atoms: _430  and  _431
REMARK  163  A    between atoms: _440  and  _442
REMARK  164  A    between atoms: _442  and  _443
REMARK  165  A    between atoms: _442  and  _445
REMARK  166  A    between atoms: _445  and  _446
REMARK  167  A    between atoms: _449  and  _451
REMARK  168  A    between atoms: _451  and  _452
REMARK  169  A    between atoms: _454  and  _456
REMARK  170  A    between atoms: _456  and  _457
REMARK  171  A    between atoms: _456  and  _459
REMARK  172  A    between atoms: _459  and  _460
REMARK  173  A    between atoms: _466  and  _467
REMARK  174  A    between atoms: _472  and  _474
REMARK  175  A    between atoms: _474  and  _475
REMARK  176  A    between atoms: _477  and  _479
REMARK  177  A    between atoms: _479  and  _480
REMARK  178  A    between atoms: _479  and  _482
REMARK  179  A    between atoms: _482  and  _483
REMARK  180  A    between atoms: _489  and  _491
REMARK  181  A    between atoms: _491  and  _492
REMARK  182  A    between atoms: _491  and  _494
REMARK  183  A    between atoms: _494  and  _495
REMARK  184  A    between atoms: _500  and  _502
REMARK  185  A    between atoms: _502  and  _503
REMARK  186  A    between atoms: _502  and  _505
REMARK  187  A    between atoms: _505  and  _506
REMARK  188  A    between atoms: _506  and  _507
REMARK  189  A    between atoms: _507  and  _508
REMARK  190  A    between atoms: _508  and  ZN_790
REMARK  191  A    between atoms: _510  and  _512
REMARK  192  A    between atoms: _512  and  _513
REMARK  193  A    between atoms: _516  and  _518
REMARK  194  A    between atoms: _518  and  _519
REMARK  195  A    between atoms: _521  and  _523
REMARK  196  A    between atoms: _523  and  _524
REMARK  197  A    between atoms: _523  and  _526
REMARK  198  A    between atoms: _526  and  _527
REMARK  199  A    between atoms: _530  and  _532
REMARK  200  A    between atoms: _532  and  _533
REMARK  201  A    between atoms: _532  and  _535
REMARK  202  A    between atoms: _538  and  _540
REMARK  203  A    between atoms: _540  and  _541
REMARK  204  A    between atoms: _540  and  _543
REMARK  205  A    between atoms: _543  and  _544
REMARK  206  A    between atoms: _546  and  _548
REMARK  207  A    between atoms: _548  and  _549
REMARK  208  A    between atoms: _548  and  _551
REMARK  209  A    between atoms: _551  and  _552
REMARK  210  A    between atoms: _555  and  _557
REMARK  211  A    between atoms: _557  and  _558
REMARK  212  A    between atoms: _557  and  _560
REMARK  213  A    between atoms: _560  and  _561
REMARK  214  A    between atoms: _563  and  _565
REMARK  215  A    between atoms: _565  and  _566
REMARK  216  A    between atoms: _565  and  _568
REMARK  217  A    between atoms: _568  and  _569
REMARK  218  A    between atoms: _572  and  _574
REMARK  219  A    between atoms: _574  and  _575
REMARK  220  A    between atoms: _574  and  _577
REMARK  221  A    between atoms: _577  and  _578
REMARK  222  A    between atoms: _578  and  _579
REMARK  223  A    between atoms: _579  and  _580
REMARK  224  A    between atoms: _580  and  _581
REMARK  225  A    between atoms: _585  and  _587
REMARK  226  A    between atoms: _587  and  _588
REMARK  227  A    between atoms: _587  and  _590
REMARK  228  A    between atoms: _590  and  _591
REMARK  229  A    between atoms: _597  and  _599
REMARK  230  A    between atoms: _599  and  _600
REMARK  231  A    between atoms: _599  and  _602
REMARK  232  A    between atoms: _602  and  _603
REMARK  233  A    between atoms: _609  and  _611
REMARK  234  A    between atoms: _611  and  _612
REMARK  235  A    between atoms: _615  and  _617
REMARK  236  A    between atoms: _617  and  _618
REMARK  237  A    between atoms: _617  and  _620
REMARK  238  A    between atoms: _620  and  _621
REMARK  239  A    between atoms: _621  and  _622
REMARK  240  A    between atoms: _624  and  _626
REMARK  241  A    between atoms: _626  and  _627
REMARK  242  A    between atoms: _626  and  _629
REMARK  243  A    between atoms: _629  and  _630
REMARK  244  A    between atoms: _630  and  _631
REMARK  245  A    between atoms: _631  and  _632
REMARK  246  A    between atoms: _632  and  _633
REMARK  247  A    between atoms: _637  and  _639
REMARK  248  A    between atoms: _639  and  _640
REMARK  249  A    between atoms: _639  and  _642
REMARK  250  A    between atoms: _642  and  _643
REMARK  251  A    between atoms: _648  and  _649
REMARK  252  A    between atoms: _651  and  _653
REMARK  253  A    between atoms: _653  and  _654
REMARK  254  A    between atoms: _653  and  _656
REMARK  255  A    between atoms: _656  and  _657
REMARK  256  A    between atoms: _662  and  _664
REMARK  257  A    between atoms: _664  and  _665
REMARK  258  A    between atoms: _664  and  _667
REMARK  259  A    between atoms: _667  and  _668
REMARK  260  A    between atoms: _671  and  _673
REMARK  261  A    between atoms: _673  and  _674
REMARK  262  A    between atoms: _677  and  _679
REMARK  263  A    between atoms: _679  and  _680
REMARK  264  A    between atoms: _679  and  _682
REMARK  265  A    between atoms: _682  and  _683
REMARK  266  A    between atoms: _686  and  _688
REMARK  267  A    between atoms: _688  and  _689
REMARK  268  A    between atoms: _688  and  _691
REMARK  269  A    between atoms: _694  and  _696
REMARK  270  A    between atoms: _696  and  _697
REMARK  271  A    between atoms: _696  and  _699
REMARK  272  A    between atoms: _699  and  _700
REMARK  273  A    between atoms: _700  and  _701
REMARK  274  A    between atoms: _704  and  _706
REMARK  275  A    between atoms: _706  and  _707
REMARK  276  A    between atoms: _706  and  _709
REMARK  277  A    between atoms: _709  and  _710
REMARK  278  A    between atoms: _715  and  _716
REMARK  279  A    between atoms: _718  and  _720
REMARK  280  A    between atoms: _720  and  _721
REMARK  281  A    between atoms: _720  and  _723
REMARK  282  A    between atoms: _723  and  _724
REMARK  283  A    between atoms: _724  and  _725
REMARK  284  A    between atoms: _725  and  _726
REMARK  285  A    between atoms: _735  and  _737
REMARK  286  A    between atoms: _737  and  _738
REMARK  287  A    between atoms: _737  and  _740
REMARK  288  A    between atoms: _740  and  _741
REMARK  289  A    between atoms: _746  and  _747
REMARK  290  A    between atoms: _749  and  _751
REMARK  291  A    between atoms: _751  and  _752
REMARK  292  A    between atoms: _751  and  _754
REMARK  293  A    between atoms: _754  and  _755
REMARK  294  A    between atoms: _758  and  _760
REMARK  295  A    between atoms: _760  and  _761
REMARK  296  A    between atoms: _760  and  _763
REMARK  297  A    between atoms: _763  and  _764
REMARK  298  A    between atoms: _766  and  _768
REMARK  299  A    between atoms: _768  and  _769
REMARK  300  A    between atoms: _768  and  _771
REMARK  301  A    between atoms: _771  and  _772
REMARK  302  A    between atoms: _778  and  _780
REMARK  303  A    between atoms: _780  and  _781
REMARK  304  A    between atoms: _780  and  _783
REMARK  305  A    between atoms: _783  and  _784
REMARK  306  A    between atoms: _784  and  _785
REMARK                            x       y       z     vdW  Elec       q    Type
REMARK                         _______ _______ _______ _____ _____    ______ ____
ROOT
ATOM      1  O   HOH     1      27.694   8.179  11.179  0.00  0.00    +0.000 OA
ENDROOT
TORSDOF 0
REMARK  Name = ../refined-set-2016/4ca7/4ca7_pocket.pdb
REMARK  306 active torsions:
REMARK  status: ('A' for Active; 'I' for Inactive)
REMARK    1  A    between atoms: _1  and  _3
REMARK    2  A    between atoms: _3  and  _4
REMARK    3  A    between atoms: _3  and  _6
REMARK    4  A    between atoms: _6  and  _7
REMARK    5  A    between atoms: _7  and  _8
REMARK    6  A    between atoms: _8  and  _9
REMARK    7  A    between atoms: _9  and  _10
REMARK    8  A    between atoms: _14  and  _16
REMARK    9  A    between atoms: _16  and  _17
REMARK   10  A    between atoms: _16  and  _19
REMARK   11  A    between atoms: _19  and  _20
REMARK   12  A    between atoms: _20  and  _21
REMARK   13  A    between atoms: _24  and  _26
REMARK   14  A    between atoms: _26  and  _27
REMARK   15  A    between atoms: _26  and  _29
REMARK   16  A    between atoms: _29  and  _30
REMARK   17  A    between atoms: _30  and  _31
REMARK   18  A    between atoms: _34  and  _36
REMARK   19  A    between atoms: _36  and  _37
REMARK   20  A    between atoms: _36  and  _39
REMARK   21  A    between atoms: _39  and  _40
REMARK   22  A    between atoms: _45  and  _47
REMARK   23  A    between atoms: _47  and  _48
REMARK   24  A    between atoms: _47  and  _50
REMARK   25  A    between atoms: _50  and  _51
REMARK   26  A    between atoms: _61  and  _63
REMARK   27  A    between atoms: _63  and  _64
REMARK   28  A    between atoms: _63  and  _66
REMARK   29  A    between atoms: _66  and  _67
REMARK   30  A    between atoms: _67  and  _68
REMARK   31  A    between atoms: _73  and  _75
REMARK   32  A    between atoms: _75  and  _76
REMARK   33  A    between atoms: _75  and  _78
REMARK   34  A    between atoms: _78  and  _79
REMARK   35  A    between atoms: _79  and  _80
REMARK   36  A    between atoms: _85  and  _87
REMARK   37  A    between atoms: _87  and  _88
REMARK   38  A    between atoms: _87  and  _90
REMARK   39  A    between atoms: _90  and  _91
REMARK   40  A    between atoms: _93  and  _95
REMARK   41  A    between atoms: _95  and  _96
REMARK   42  A    between atoms: _95  and  _98
REMARK   43  A    between atoms: _101  and  _103
REMARK   44  A    between atoms: _103  and  _104
REMARK   45  A    between atoms: _103  and  _106
REMARK   46  A    between atoms: _108  and  _110
REMARK   47  A    between atoms: _110  and  _111
REMARK   48  A    between atoms: _110  and  _113
REMARK   49  A    between atoms: _113  and  _114
REMARK   50  A    between atoms: _119  and  _121
REMARK   51  A    between atoms: _121  and  _122
REMARK   52  A    between atoms: _125  and  _127
REMARK   53  A    between atoms: _127  and  _128
REMARK   54  A    between atoms: _127  and  _130
REMARK   55  A    between atoms: _130  and  _131
REMARK   56  A    between atoms: _133  and  _135
REMARK   57  A    between atoms: _135  and  _136
REMARK   58  A    between atoms: _139  and  _141
REMARK   59  A    between atoms: _141  and  _142
REMARK   60  A    between atoms: _141  and  _144
REMARK   61  A    between atoms: _144  and  _145
REMARK   62  A    between atoms: _155  and  _157
REMARK   63  A    between atoms: _157  and  _158
REMARK   64  A    between atoms: _157  and  _160
REMARK   65  A    between atoms: _160  and  _161
REMARK   66  A    between atoms: _164  and  _166
REMARK   67  A    between atoms: _166  and  _167
REMARK   68  A    between atoms: _166  and  _169
REMARK   69  A    between atoms: _169  and  _170
REMARK   70  A    between atoms: _175  and  _176
REMARK   71  A    between atoms: _178  and  _180
REMARK   72  A    between atoms: _180  and  _181
REMARK   73  A    between atoms: _180  and  _183
REMARK   74  A    between atoms: _183  and  _184
REMARK   75  A    between atoms: _184  and  _185
REMARK   76  A    between atoms: _185  and  _186
REMARK   77  A    between atoms: _195  and  _197
REMARK   78  A    between atoms: _197  and  _198
REMARK   79  A    between atoms: _197  and  _200
REMARK   80  A    between atoms: _200  and  _201
REMARK   81  A    between atoms: _204  and  _206
REMARK   82  A    between atoms: _206  and  _207
REMARK   83  A    between atoms: _206  and  _209
REMARK   84  A    between atoms: _209  and  _210
REMARK   85  A    between atoms: _210  and  _211
REMARK   86  A    between atoms: _211  and  _212
REMARK   87  A    between atoms: _212  and  _213
REMARK   88  A    between atoms: _217  and  _219
REMARK   89  A    between atoms: _219  and  _220
REMARK   90  A    between atoms: _219  and  _222
REMARK   91  A    between atoms: _222  and  _223
REMARK   92  A    between atoms: _223  and  _224
REMARK   93  A    between atoms: _229  and  _231
REMARK   94  A    between atoms: _231  and  _232
REMARK   95  A    between atoms: _231  and  _234
REMARK   96  A    between atoms: _234  and  _235
REMARK   97  A    between atoms: _235  and  _236
REMARK   98  A    between atoms: _236  and  _237
REMARK   99  A    between atoms: _246  and  _248
REMARK  100  A    between atoms: _248  and  _249
REMARK  101  A    between atoms: _248  and  _251
REMARK  102  A    between atoms: _251  and  _252
REMARK  103  A    between atoms: _252  and  _253
REMARK  104  A    between atoms: _258  and  _260
REMARK  105  A    between atoms: _260  and  _261
REMARK  106  A    between atoms: _260  and  _263
REMARK  107  A    between atoms: _263  and  _264
REMARK  108  A    between atoms: _267  and  _269
REMARK  109  A    between atoms: _269  and  _270
REMARK  110  A    between atoms: _269  and  _272
REMARK  111  A    between atoms: _272  and  _273
REMARK  112  A    between atoms: _273  and  _274
REMARK  113  A    between atoms: _279  and  _281
REMARK  114  A    between atoms: _281  and  _282
REMARK  115  A    between atoms: _281  and  _284
REMARK  116  A    between atoms: _284  and  _285
REMARK  117  A    between atoms: _288  and  _290
REMARK  118  A    between atoms: _290  and  _291
REMARK  119  A    between atoms: _290  and  _293
REMARK  120  A    between atoms: _293  and  _294
REMARK  121  A    between atoms: _300  and  _302
REMARK  122  A    between atoms: _302  and  _303
REMARK  123  A    between atoms: _302  and  _305
REMARK  124  A    between atoms: _305  and  _306
REMARK  125  A    between atoms: _309  and  _311
REMARK  126  A    between atoms: _311  and  _312
REMARK  127  A    between atoms: _311  and  _314
REMARK  128  A    between atoms: _317  and  _319
REMARK  129  A    between atoms: _319  and  _320
REMARK  130  A    between atoms: _319  and  _322
REMARK  131  A    between atoms: _322  and  _323
REMARK  132  A    between atoms: _328  and  _330
REMARK  133  A    between atoms: _341  and  _344
REMARK  134  A    between atoms: _344  and  _345
REMARK  135  A    between atoms: _345  and  _346
REMARK  136  A    between atoms: _351  and  _354
REMARK  137  A    between atoms: _354  and  _355
REMARK  138  A    between atoms: _365  and  _366
REMARK  139  A    between atoms: _374  and  _376
REMARK  140  A    between atoms: _376  and  _377
REMARK  141  A    between atoms: _376  and  _379
REMARK  142  A    between atoms: _379  and  _380
REMARK  143  A    between atoms: _383  and  _385
REMARK  144  A    between atoms: _385  and  _386
REMARK  145  A    between atoms: _385  and  _388
REMARK  146  A    between atoms: _388  and  _389
REMARK  147  A    between atoms: _394  and  _395
REMARK  148  A    between atoms: _397  and  _399
REMARK  149  A    between atoms: _399  and  _400
REMARK  150  A    between atoms: _399  and  _402
REMARK  151  A    between atoms: _402  and  _403
REMARK  152  A    between atoms: _409  and  _411
REMARK  153  A    between atoms: _411  and  _412
REMARK  154  A    between atoms: _411  and  _414
REMARK  155  A    between atoms: _414  and  _415
REMARK  156  A    between atoms: _420  and  _421
REMARK  157  A    between atoms: _423  and  _425
REMARK  158  A    between atoms: _425  and  _426
REMARK  159  A    between atoms: _425  and  _428
REMARK  160  A    between atoms: _428  and  _429
REMARK  161  A    between atoms: _429  and  _430
REMARK  162  A    between atoms: _430  and  _431
REMARK  163  A    between atoms: _440  and  _442
REMARK  164  A    between atoms: _442  and  _443
REMARK  165  A    between atoms: _442  and  _445
REMARK  166  A    between atoms: _445  and  _446
REMARK  167  A    between atoms: _449  and  _451
REMARK  168  A    between atoms: _451  and  _452
REMARK  169  A    between atoms: _454  and  _456
REMARK  170  A    between atoms: _456  and  _457
REMARK  171  A    between atoms: _456  and  _459
REMARK  172  A    between atoms: _459  and  _460
REMARK  173  A    between atoms: _466  and  _467
REMARK  174  A    between atoms: _472  and  _474
REMARK  175  A    between atoms: _474  and  _475
REMARK  176  A    between atoms: _477  and  _479
REMARK  177  A    between atoms: _479  and  _480
REMARK  178  A    between atoms: _479  and  _482
REMARK  179  A    between atoms: _482  and  _483
REMARK  180  A    between atoms: _489  and  _491
REMARK  181  A    between atoms: _491  and  _492
REMARK  182  A    between atoms: _491  and  _494
REMARK  183  A    between atoms: _494  and  _495
REMARK  184  A    between atoms: _500  and  _502
REMARK  185  A    between atoms: _502  and  _503
REMARK  186  A    between atoms: _502  and  _505
REMARK  187  A    between atoms: _505  and  _506
REMARK  188  A    between atoms: _506  and  _507
REMARK  189  A    between atoms: _507  and  _508
REMARK  190  A    between atoms: _508  and  ZN_790
REMARK  191  A    between atoms: _510  and  _512
REMARK  192  A    between atoms: _512  and  _513
REMARK  193  A    between atoms: _516  and  _518
REMARK  194  A    between atoms: _518  and  _519
REMARK  195  A    between atoms: _521  and  _523
REMARK  196  A    between atoms: _523  and  _524
REMARK  197  A    between atoms: _523  and  _526
REMARK  198  A    between atoms: _526  and  _527
REMARK  199  A    between atoms: _530  and  _532
REMARK  200  A    between atoms: _532  and  _533
REMARK  201  A    between atoms: _532  and  _535
REMARK  202  A    between atoms: _538  and  _540
REMARK  203  A    between atoms: _540  and  _541
REMARK  204  A    between atoms: _540  and  _543
REMARK  205  A    between atoms: _543  and  _544
REMARK  206  A    between atoms: _546  and  _548
REMARK  207  A    between atoms: _548  and  _549
REMARK  208  A    between atoms: _548  and  _551
REMARK  209  A    between atoms: _551  and  _552
REMARK  210  A    between atoms: _555  and  _557
REMARK  211  A    between atoms: _557  and  _558
REMARK  212  A    between atoms: _557  and  _560
REMARK  213  A    between atoms: _560  and  _561
REMARK  214  A    between atoms: _563  and  _565
REMARK  215  A    between atoms: _565  and  _566
REMARK  216  A    between atoms: _565  and  _568
REMARK  217  A    between atoms: _568  and  _569
REMARK  218  A    between atoms: _572  and  _574
REMARK  219  A    between atoms: _574  and  _575
REMARK  220  A    between atoms: _574  and  _577
REMARK  221  A    between atoms: _577  and  _578
REMARK  222  A    between atoms: _578  and  _579
REMARK  223  A    between atoms: _579  and  _580
REMARK  224  A    between atoms: _580  and  _581
REMARK  225  A    between atoms: _585  and  _587
REMARK  226  A    between atoms: _587  and  _588
REMARK  227  A    between atoms: _587  and  _590
REMARK  228  A    between atoms: _590  and  _591
REMARK  229  A    between atoms: _597  and  _599
REMARK  230  A    between atoms: _599  and  _600
REMARK  231  A    between atoms: _599  and  _602
REMARK  232  A    between atoms: _602  and  _603
REMARK  233  A    between atoms: _609  and  _611
REMARK  234  A    between atoms: _611  and  _612
REMARK  235  A    between atoms: _615  and  _617
REMARK  236  A    between atoms: _617  and  _618
REMARK  237  A    between atoms: _617  and  _620
REMARK  238  A    between atoms: _620  and  _621
REMARK  239  A    between atoms: _621  and  _622
REMARK  240  A    between atoms: _624  and  _626
REMARK  241  A    between atoms: _626  and  _627
REMARK  242  A    between atoms: _626  and  _629
REMARK  243  A    between atoms: _629  and  _630
REMARK  244  A    between atoms: _630  and  _631
REMARK  245  A    between atoms: _631  and  _632
REMARK  246  A    between atoms: _632  and  _633
REMARK  247  A    between atoms: _637  and  _639
REMARK  248  A    between atoms: _639  and  _640
REMARK  249  A    between atoms: _639  and  _642
REMARK  250  A    between atoms: _642  and  _643
REMARK  251  A    between atoms: _648  and  _649
REMARK  252  A    between atoms: _651  and  _653
REMARK  253  A    between atoms: _653  and  _654
REMARK  254  A    between atoms: _653  and  _656
REMARK  255  A    between atoms: _656  and  _657
REMARK  256  A    between atoms: _662  and  _664
REMARK  257  A    between atoms: _664  and  _665
REMARK  258  A    between atoms: _664  and  _667
REMARK  259  A    between atoms: _667  and  _668
REMARK  260  A    between atoms: _671  and  _673
REMARK  261  A    between atoms: _673  and  _674
REMARK  262  A    between atoms: _677  and  _679
REMARK  263  A    between atoms: _679  and  _680
REMARK  264  A    between atoms: _679  and  _682
REMARK  265  A    between atoms: _682  and  _683
REMARK  266  A    between atoms: _686  and  _688
REMARK  267  A    between atoms: _688  and  _689
REMARK  268  A    between atoms: _688  and  _691
REMARK  269  A    between atoms: _694  and  _696
REMARK  270  A    between atoms: _696  and  _697
REMARK  271  A    between atoms: _696  and  _699
REMARK  272  A    between atoms: _699  and  _700
REMARK  273  A    between atoms: _700  and  _701
REMARK  274  A    between atoms: _704  and  _706
REMARK  275  A    between atoms: _706  and  _707
REMARK  276  A    between atoms: _706  and  _709
REMARK  277  A    between atoms: _709  and  _710
REMARK  278  A    between atoms: _715  and  _716
REMARK  279  A    between atoms: _718  and  _720
REMARK  280  A    between atoms: _720  and  _721
REMARK  281  A    between atoms: _720  and  _723
REMARK  282  A    between atoms: _723  and  _724
REMARK  283  A    between atoms: _724  and  _725
REMARK  284  A    between atoms: _725  and  _726
REMARK  285  A    between atoms: _735  and  _737
REMARK  286  A    between atoms: _737  and  _738
REMARK  287  A    between atoms: _737  and  _740
REMARK  288  A    between atoms: _740  and  _741
REMARK  289  A    between atoms: _746  and  _747
REMARK  290  A    between atoms: _749  and  _751
REMARK  291  A    between atoms: _751  and  _752
REMARK  292  A    between atoms: _751  and  _754
REMARK  293  A    between atoms: _754  and  _755
REMARK  294  A    between atoms: _758  and  _760
REMARK  295  A    between atoms: _760  and  _761
REMARK  296  A    between atoms: _760  and  _763
REMARK  297  A    between atoms: _763  and  _764
REMARK  298  A    between atoms: _766  and  _768
REMARK  299  A    between atoms: _768  and  _769
REMARK  300  A    between atoms: _768  and  _771
REMARK  301  A    between atoms: _771  and  _772
REMARK  302  A    between atoms: _778  and  _780
REMARK  303  A    between atoms: _780  and  _781
REMARK  304  A    between atoms: _780  and  _783
REMARK  305  A    between atoms: _783  and  _784
REMARK  306  A    between atoms: _784  and  _785
REMARK                            x       y       z     vdW  Elec       q    Type
REMARK                         _______ _______ _______ _____ _____    ______ ____
ROOT
ATOM      1  O   HOH     1      29.070  11.709  11.052  0.00  0.00    +0.000 OA
ENDROOT
TORSDOF 0
REMARK  Name = ../refined-set-2016/4ca7/4ca7_pocket.pdb
REMARK  306 active torsions:
REMARK  status: ('A' for Active; 'I' for Inactive)
REMARK    1  A    between atoms: _1  and  _3
REMARK    2  A    between atoms: _3  and  _4
REMARK    3  A    between atoms: _3  and  _6
REMARK    4  A    between atoms: _6  and  _7
REMARK    5  A    between atoms: _7  and  _8
REMARK    6  A    between atoms: _8  and  _9
REMARK    7  A    between atoms: _9  and  _10
REMARK    8  A    between atoms: _14  and  _16
REMARK    9  A    between atoms: _16  and  _17
REMARK   10  A    between atoms: _16  and  _19
REMARK   11  A    between atoms: _19  and  _20
REMARK   12  A    between atoms: _20  and  _21
REMARK   13  A    between atoms: _24  and  _26
REMARK   14  A    between atoms: _26  and  _27
REMARK   15  A    between atoms: _26  and  _29
REMARK   16  A    between atoms: _29  and  _30
REMARK   17  A    between atoms: _30  and  _31
REMARK   18  A    between atoms: _34  and  _36
REMARK   19  A    between atoms: _36  and  _37
REMARK   20  A    between atoms: _36  and  _39
REMARK   21  A    between atoms: _39  and  _40
REMARK   22  A    between atoms: _45  and  _47
REMARK   23  A    between atoms: _47  and  _48
REMARK   24  A    between atoms: _47  and  _50
REMARK   25  A    between atoms: _50  and  _51
REMARK   26  A    between atoms: _61  and  _63
REMARK   27  A    between atoms: _63  and  _64
REMARK   28  A    between atoms: _63  and  _66
REMARK   29  A    between atoms: _66  and  _67
REMARK   30  A    between atoms: _67  and  _68
REMARK   31  A    between atoms: _73  and  _75
REMARK   32  A    between atoms: _75  and  _76
REMARK   33  A    between atoms: _75  and  _78
REMARK   34  A    between atoms: _78  and  _79
REMARK   35  A    between atoms: _79  and  _80
REMARK   36  A    between atoms: _85  and  _87
REMARK   37  A    between atoms: _87  and  _88
REMARK   38  A    between atoms: _87  and  _90
REMARK   39  A    between atoms: _90  and  _91
REMARK   40  A    between atoms: _93  and  _95
REMARK   41  A    between atoms: _95  and  _96
REMARK   42  A    between atoms: _95  and  _98
REMARK   43  A    between atoms: _101  and  _103
REMARK   44  A    between atoms: _103  and  _104
REMARK   45  A    between atoms: _103  and  _106
REMARK   46  A    between atoms: _108  and  _110
REMARK   47  A    between atoms: _110  and  _111
REMARK   48  A    between atoms: _110  and  _113
REMARK   49  A    between atoms: _113  and  _114
REMARK   50  A    between atoms: _119  and  _121
REMARK   51  A    between atoms: _121  and  _122
REMARK   52  A    between atoms: _125  and  _127
REMARK   53  A    between atoms: _127  and  _128
REMARK   54  A    between atoms: _127  and  _130
REMARK   55  A    between atoms: _130  and  _131
REMARK   56  A    between atoms: _133  and  _135
REMARK   57  A    between atoms: _135  and  _136
REMARK   58  A    between atoms: _139  and  _141
REMARK   59  A    between atoms: _141  and  _142
REMARK   60  A    between atoms: _141  and  _144
REMARK   61  A    between atoms: _144  and  _145
REMARK   62  A    between atoms: _155  and  _157
REMARK   63  A    between atoms: _157  and  _158
REMARK   64  A    between atoms: _157  and  _160
REMARK   65  A    between atoms: _160  and  _161
REMARK   66  A    between atoms: _164  and  _166
REMARK   67  A    between atoms: _166  and  _167
REMARK   68  A    between atoms: _166  and  _169
REMARK   69  A    between atoms: _169  and  _170
REMARK   70  A    between atoms: _175  and  _176
REMARK   71  A    between atoms: _178  and  _180
REMARK   72  A    between atoms: _180  and  _181
REMARK   73  A    between atoms: _180  and  _183
REMARK   74  A    between atoms: _183  and  _184
REMARK   75  A    between atoms: _184  and  _185
REMARK   76  A    between atoms: _185  and  _186
REMARK   77  A    between atoms: _195  and  _197
REMARK   78  A    between atoms: _197  and  _198
REMARK   79  A    between atoms: _197  and  _200
REMARK   80  A    between atoms: _200  and  _201
REMARK   81  A    between atoms: _204  and  _206
REMARK   82  A    between atoms: _206  and  _207
REMARK   83  A    between atoms: _206  and  _209
REMARK   84  A    between atoms: _209  and  _210
REMARK   85  A    between atoms: _210  and  _211
REMARK   86  A    between atoms: _211  and  _212
REMARK   87  A    between atoms: _212  and  _213
REMARK   88  A    between atoms: _217  and  _219
REMARK   89  A    between atoms: _219  and  _220
REMARK   90  A    between atoms: _219  and  _222
REMARK   91  A    between atoms: _222  and  _223
REMARK   92  A    between atoms: _223  and  _224
REMARK   93  A    between atoms: _229  and  _231
REMARK   94  A    between atoms: _231  and  _232
REMARK   95  A    between atoms: _231  and  _234
REMARK   96  A    between atoms: _234  and  _235
REMARK   97  A    between atoms: _235  and  _236
REMARK   98  A    between atoms: _236  and  _237
REMARK   99  A    between atoms: _246  and  _248
REMARK  100  A    between atoms: _248  and  _249
REMARK  101  A    between atoms: _248  and  _251
REMARK  102  A    between atoms: _251  and  _252
REMARK  103  A    between atoms: _252  and  _253
REMARK  104  A    between atoms: _258  and  _260
REMARK  105  A    between atoms: _260  and  _261
REMARK  106  A    between atoms: _260  and  _263
REMARK  107  A    between atoms: _263  and  _264
REMARK  108  A    between atoms: _267  and  _269
REMARK  109  A    between atoms: _269  and  _270
REMARK  110  A    between atoms: _269  and  _272
REMARK  111  A    between atoms: _272  and  _273
REMARK  112  A    between atoms: _273  and  _274
REMARK  113  A    between atoms: _279  and  _281
REMARK  114  A    between atoms: _281  and  _282
REMARK  115  A    between atoms: _281  and  _284
REMARK  116  A    between atoms: _284  and  _285
REMARK  117  A    between atoms: _288  and  _290
REMARK  118  A    between atoms: _290  and  _291
REMARK  119  A    between atoms: _290  and  _293
REMARK  120  A    between atoms: _293  and  _294
REMARK  121  A    between atoms: _300  and  _302
REMARK  122  A    between atoms: _302  and  _303
REMARK  123  A    between atoms: _302  and  _305
REMARK  124  A    between atoms: _305  and  _306
REMARK  125  A    between atoms: _309  and  _311
REMARK  126  A    between atoms: _311  and  _312
REMARK  127  A    between atoms: _311  and  _314
REMARK  128  A    between atoms: _317  and  _319
REMARK  129  A    between atoms: _319  and  _320
REMARK  130  A    between atoms: _319  and  _322
REMARK  131  A    between atoms: _322  and  _323
REMARK  132  A    between atoms: _328  and  _330
REMARK  133  A    between atoms: _341  and  _344
REMARK  134  A    between atoms: _344  and  _345
REMARK  135  A    between atoms: _345  and  _346
REMARK  136  A    between atoms: _351  and  _354
REMARK  137  A    between atoms: _354  and  _355
REMARK  138  A    between atoms: _365  and  _366
REMARK  139  A    between atoms: _374  and  _376
REMARK  140  A    between atoms: _376  and  _377
REMARK  141  A    between atoms: _376  and  _379
REMARK  142  A    between atoms: _379  and  _380
REMARK  143  A    between atoms: _383  and  _385
REMARK  144  A    between atoms: _385  and  _386
REMARK  145  A    between atoms: _385  and  _388
REMARK  146  A    between atoms: _388  and  _389
REMARK  147  A    between atoms: _394  and  _395
REMARK  148  A    between atoms: _397  and  _399
REMARK  149  A    between atoms: _399  and  _400
REMARK  150  A    between atoms: _399  and  _402
REMARK  151  A    between atoms: _402  and  _403
REMARK  152  A    between atoms: _409  and  _411
REMARK  153  A    between atoms: _411  and  _412
REMARK  154  A    between atoms: _411  and  _414
REMARK  155  A    between atoms: _414  and  _415
REMARK  156  A    between atoms: _420  and  _421
REMARK  157  A    between atoms: _423  and  _425
REMARK  158  A    between atoms: _425  and  _426
REMARK  159  A    between atoms: _425  and  _428
REMARK  160  A    between atoms: _428  and  _429
REMARK  161  A    between atoms: _429  and  _430
REMARK  162  A    between atoms: _430  and  _431
REMARK  163  A    between atoms: _440  and  _442
REMARK  164  A    between atoms: _442  and  _443
REMARK  165  A    between atoms: _442  and  _445
REMARK  166  A    between atoms: _445  and  _446
REMARK  167  A    between atoms: _449  and  _451
REMARK  168  A    between atoms: _451  and  _452
REMARK  169  A    between atoms: _454  and  _456
REMARK  170  A    between atoms: _456  and  _457
REMARK  171  A    between atoms: _456  and  _459
REMARK  172  A    between atoms: _459  and  _460
REMARK  173  A    between atoms: _466  and  _467
REMARK  174  A    between atoms: _472  and  _474
REMARK  175  A    between atoms: _474  and  _475
REMARK  176  A    between atoms: _477  and  _479
REMARK  177  A    between atoms: _479  and  _480
REMARK  178  A    between atoms: _479  and  _482
REMARK  179  A    between atoms: _482  and  _483
REMARK  180  A    between atoms: _489  and  _491
REMARK  181  A    between atoms: _491  and  _492
REMARK  182  A    between atoms: _491  and  _494
REMARK  183  A    between atoms: _494  and  _495
REMARK  184  A    between atoms: _500  and  _502
REMARK  185  A    between atoms: _502  and  _503
REMARK  186  A    between atoms: _502  and  _505
REMARK  187  A    between atoms: _505  and  _506
REMARK  188  A    between atoms: _506  and  _507
REMARK  189  A    between atoms: _507  and  _508
REMARK  190  A    between atoms: _508  and  ZN_790
REMARK  191  A    between atoms: _510  and  _512
REMARK  192  A    between atoms: _512  and  _513
REMARK  193  A    between atoms: _516  and  _518
REMARK  194  A    between atoms: _518  and  _519
REMARK  195  A    between atoms: _521  and  _523
REMARK  196  A    between atoms: _523  and  _524
REMARK  197  A    between atoms: _523  and  _526
REMARK  198  A    between atoms: _526  and  _527
REMARK  199  A    between atoms: _530  and  _532
REMARK  200  A    between atoms: _532  and  _533
REMARK  201  A    between atoms: _532  and  _535
REMARK  202  A    between atoms: _538  and  _540
REMARK  203  A    between atoms: _540  and  _541
REMARK  204  A    between atoms: _540  and  _543
REMARK  205  A    between atoms: _543  and  _544
REMARK  206  A    between atoms: _546  and  _548
REMARK  207  A    between atoms: _548  and  _549
REMARK  208  A    between atoms: _548  and  _551
REMARK  209  A    between atoms: _551  and  _552
REMARK  210  A    between atoms: _555  and  _557
REMARK  211  A    between atoms: _557  and  _558
REMARK  212  A    between atoms: _557  and  _560
REMARK  213  A    between atoms: _560  and  _561
REMARK  214  A    between atoms: _563  and  _565
REMARK  215  A    between atoms: _565  and  _566
REMARK  216  A    between atoms: _565  and  _568
REMARK  217  A    between atoms: _568  and  _569
REMARK  218  A    between atoms: _572  and  _574
REMARK  219  A    between atoms: _574  and  _575
REMARK  220  A    between atoms: _574  and  _577
REMARK  221  A    between atoms: _577  and  _578
REMARK  222  A    between atoms: _578  and  _579
REMARK  223  A    between atoms: _579  and  _580
REMARK  224  A    between atoms: _580  and  _581
REMARK  225  A    between atoms: _585  and  _587
REMARK  226  A    between atoms: _587  and  _588
REMARK  227  A    between atoms: _587  and  _590
REMARK  228  A    between atoms: _590  and  _591
REMARK  229  A    between atoms: _597  and  _599
REMARK  230  A    between atoms: _599  and  _600
REMARK  231  A    between atoms: _599  and  _602
REMARK  232  A    between atoms: _602  and  _603
REMARK  233  A    between atoms: _609  and  _611
REMARK  234  A    between atoms: _611  and  _612
REMARK  235  A    between atoms: _615  and  _617
REMARK  236  A    between atoms: _617  and  _618
REMARK  237  A    between atoms: _617  and  _620
REMARK  238  A    between atoms: _620  and  _621
REMARK  239  A    between atoms: _621  and  _622
REMARK  240  A    between atoms: _624  and  _626
REMARK  241  A    between atoms: _626  and  _627
REMARK  242  A    between atoms: _626  and  _629
REMARK  243  A    between atoms: _629  and  _630
REMARK  244  A    between atoms: _630  and  _631
REMARK  245  A    between atoms: _631  and  _632
REMARK  246  A    between atoms: _632  and  _633
REMARK  247  A    between atoms: _637  and  _639
REMARK  248  A    between atoms: _639  and  _640
REMARK  249  A    between atoms: _639  and  _642
REMARK  250  A    between atoms: _642  and  _643
REMARK  251  A    between atoms: _648  and  _649
REMARK  252  A    between atoms: _651  and  _653
REMARK  253  A    between atoms: _653  and  _654
REMARK  254  A    between atoms: _653  and  _656
REMARK  255  A    between atoms: _656  and  _657
REMARK  256  A    between atoms: _662  and  _664
REMARK  257  A    between atoms: _664  and  _665
REMARK  258  A    between atoms: _664  and  _667
REMARK  259  A    between atoms: _667  and  _668
REMARK  260  A    between atoms: _671  and  _673
REMARK  261  A    between atoms: _673  and  _674
REMARK  262  A    between atoms: _677  and  _679
REMARK  263  A    between atoms: _679  and  _680
REMARK  264  A    between atoms: _679  and  _682
REMARK  265  A    between atoms: _682  and  _683
REMARK  266  A    between atoms: _686  and  _688
REMARK  267  A    between atoms: _688  and  _689
REMARK  268  A    between atoms: _688  and  _691
REMARK  269  A    between atoms: _694  and  _696
REMARK  270  A    between atoms: _696  and  _697
REMARK  271  A    between atoms: _696  and  _699
REMARK  272  A    between atoms: _699  and  _700
REMARK  273  A    between atoms: _700  and  _701
REMARK  274  A    between atoms: _704  and  _706
REMARK  275  A    between atoms: _706  and  _707
REMARK  276  A    between atoms: _706  and  _709
REMARK  277  A    between atoms: _709  and  _710
REMARK  278  A    between atoms: _715  and  _716
REMARK  279  A    between atoms: _718  and  _720
REMARK  280  A    between atoms: _720  and  _721
REMARK  281  A    between atoms: _720  and  _723
REMARK  282  A    between atoms: _723  and  _724
REMARK  283  A    between atoms: _724  and  _725
REMARK  284  A    between atoms: _725  and  _726
REMARK  285  A    between atoms: _735  and  _737
REMARK  286  A    between atoms: _737  and  _738
REMARK  287  A    between atoms: _737  and  _740
REMARK  288  A    between atoms: _740  and  _741
REMARK  289  A    between atoms: _746  and  _747
REMARK  290  A    between atoms: _749  and  _751
REMARK  291  A    between atoms: _751  and  _752
REMARK  292  A    between atoms: _751  and  _754
REMARK  293  A    between atoms: _754  and  _755
REMARK  294  A    between atoms: _758  and  _760
REMARK  295  A    between atoms: _760  and  _761
REMARK  296  A    between atoms: _760  and  _763
REMARK  297  A    between atoms: _763  and  _764
REMARK  298  A    between atoms: _766  and  _768
REMARK  299  A    between atoms: _768  and  _769
REMARK  300  A    between atoms: _768  and  _771
REMARK  301  A    between atoms: _771  and  _772
REMARK  302  A    between atoms: _778  and  _780
REMARK  303  A    between atoms: _780  and  _781
REMARK  304  A    between atoms: _780  and  _783
REMARK  305  A    between atoms: _783  and  _784
REMARK  306  A    between atoms: _784  and  _785
REMARK                            x       y       z     vdW  Elec       q    Type
REMARK                         _______ _______ _______ _____ _____    ______ ____
ROOT
ATOM      1  O   HOH     1      30.378   8.489  16.305  0.00  0.00    +0.000 OA
ENDROOT
TORSDOF 0
REMARK  Name = ../refined-set-2016/4ca7/4ca7_pocket.pdb
REMARK  306 active torsions:
REMARK  status: ('A' for Active; 'I' for Inactive)
REMARK    1  A    between atoms: _1  and  _3
REMARK    2  A    between atoms: _3  and  _4
REMARK    3  A    between atoms: _3  and  _6
REMARK    4  A    between atoms: _6  and  _7
REMARK    5  A    between atoms: _7  and  _8
REMARK    6  A    between atoms: _8  and  _9
REMARK    7  A    between atoms: _9  and  _10
REMARK    8  A    between atoms: _14  and  _16
REMARK    9  A    between atoms: _16  and  _17
REMARK   10  A    between atoms: _16  and  _19
REMARK   11  A    between atoms: _19  and  _20
REMARK   12  A    between atoms: _20  and  _21
REMARK   13  A    between atoms: _24  and  _26
REMARK   14  A    between atoms: _26  and  _27
REMARK   15  A    between atoms: _26  and  _29
REMARK   16  A    between atoms: _29  and  _30
REMARK   17  A    between atoms: _30  and  _31
REMARK   18  A    between atoms: _34  and  _36
REMARK   19  A    between atoms: _36  and  _37
REMARK   20  A    between atoms: _36  and  _39
REMARK   21  A    between atoms: _39  and  _40
REMARK   22  A    between atoms: _45  and  _47
REMARK   23  A    between atoms: _47  and  _48
REMARK   24  A    between atoms: _47  and  _50
REMARK   25  A    between atoms: _50  and  _51
REMARK   26  A    between atoms: _61  and  _63
REMARK   27  A    between atoms: _63  and  _64
REMARK   28  A    between atoms: _63  and  _66
REMARK   29  A    between atoms: _66  and  _67
REMARK   30  A    between atoms: _67  and  _68
REMARK   31  A    between atoms: _73  and  _75
REMARK   32  A    between atoms: _75  and  _76
REMARK   33  A    between atoms: _75  and  _78
REMARK   34  A    between atoms: _78  and  _79
REMARK   35  A    between atoms: _79  and  _80
REMARK   36  A    between atoms: _85  and  _87
REMARK   37  A    between atoms: _87  and  _88
REMARK   38  A    between atoms: _87  and  _90
REMARK   39  A    between atoms: _90  and  _91
REMARK   40  A    between atoms: _93  and  _95
REMARK   41  A    between atoms: _95  and  _96
REMARK   42  A    between atoms: _95  and  _98
REMARK   43  A    between atoms: _101  and  _103
REMARK   44  A    between atoms: _103  and  _104
REMARK   45  A    between atoms: _103  and  _106
REMARK   46  A    between atoms: _108  and  _110
REMARK   47  A    between atoms: _110  and  _111
REMARK   48  A    between atoms: _110  and  _113
REMARK   49  A    between atoms: _113  and  _114
REMARK   50  A    between atoms: _119  and  _121
REMARK   51  A    between atoms: _121  and  _122
REMARK   52  A    between atoms: _125  and  _127
REMARK   53  A    between atoms: _127  and  _128
REMARK   54  A    between atoms: _127  and  _130
REMARK   55  A    between atoms: _130  and  _131
REMARK   56  A    between atoms: _133  and  _135
REMARK   57  A    between atoms: _135  and  _136
REMARK   58  A    between atoms: _139  and  _141
REMARK   59  A    between atoms: _141  and  _142
REMARK   60  A    between atoms: _141  and  _144
REMARK   61  A    between atoms: _144  and  _145
REMARK   62  A    between atoms: _155  and  _157
REMARK   63  A    between atoms: _157  and  _158
REMARK   64  A    between atoms: _157  and  _160
REMARK   65  A    between atoms: _160  and  _161
REMARK   66  A    between atoms: _164  and  _166
REMARK   67  A    between atoms: _166  and  _167
REMARK   68  A    between atoms: _166  and  _169
REMARK   69  A    between atoms: _169  and  _170
REMARK   70  A    between atoms: _175  and  _176
REMARK   71  A    between atoms: _178  and  _180
REMARK   72  A    between atoms: _180  and  _181
REMARK   73  A    between atoms: _180  and  _183
REMARK   74  A    between atoms: _183  and  _184
REMARK   75  A    between atoms: _184  and  _185
REMARK   76  A    between atoms: _185  and  _186
REMARK   77  A    between atoms: _195  and  _197
REMARK   78  A    between atoms: _197  and  _198
REMARK   79  A    between atoms: _197  and  _200
REMARK   80  A    between atoms: _200  and  _201
REMARK   81  A    between atoms: _204  and  _206
REMARK   82  A    between atoms: _206  and  _207
REMARK   83  A    between atoms: _206  and  _209
REMARK   84  A    between atoms: _209  and  _210
REMARK   85  A    between atoms: _210  and  _211
REMARK   86  A    between atoms: _211  and  _212
REMARK   87  A    between atoms: _212  and  _213
REMARK   88  A    between atoms: _217  and  _219
REMARK   89  A    between atoms: _219  and  _220
REMARK   90  A    between atoms: _219  and  _222
REMARK   91  A    between atoms: _222  and  _223
REMARK   92  A    between atoms: _223  and  _224
REMARK   93  A    between atoms: _229  and  _231
REMARK   94  A    between atoms: _231  and  _232
REMARK   95  A    between atoms: _231  and  _234
REMARK   96  A    between atoms: _234  and  _235
REMARK   97  A    between atoms: _235  and  _236
REMARK   98  A    between atoms: _236  and  _237
REMARK   99  A    between atoms: _246  and  _248
REMARK  100  A    between atoms: _248  and  _249
REMARK  101  A    between atoms: _248  and  _251
REMARK  102  A    between atoms: _251  and  _252
REMARK  103  A    between atoms: _252  and  _253
REMARK  104  A    between atoms: _258  and  _260
REMARK  105  A    between atoms: _260  and  _261
REMARK  106  A    between atoms: _260  and  _263
REMARK  107  A    between atoms: _263  and  _264
REMARK  108  A    between atoms: _267  and  _269
REMARK  109  A    between atoms: _269  and  _270
REMARK  110  A    between atoms: _269  and  _272
REMARK  111  A    between atoms: _272  and  _273
REMARK  112  A    between atoms: _273  and  _274
REMARK  113  A    between atoms: _279  and  _281
REMARK  114  A    between atoms: _281  and  _282
REMARK  115  A    between atoms: _281  and  _284
REMARK  116  A    between atoms: _284  and  _285
REMARK  117  A    between atoms: _288  and  _290
REMARK  118  A    between atoms: _290  and  _291
REMARK  119  A    between atoms: _290  and  _293
REMARK  120  A    between atoms: _293  and  _294
REMARK  121  A    between atoms: _300  and  _302
REMARK  122  A    between atoms: _302  and  _303
REMARK  123  A    between atoms: _302  and  _305
REMARK  124  A    between atoms: _305  and  _306
REMARK  125  A    between atoms: _309  and  _311
REMARK  126  A    between atoms: _311  and  _312
REMARK  127  A    between atoms: _311  and  _314
REMARK  128  A    between atoms: _317  and  _319
REMARK  129  A    between atoms: _319  and  _320
REMARK  130  A    between atoms: _319  and  _322
REMARK  131  A    between atoms: _322  and  _323
REMARK  132  A    between atoms: _328  and  _330
REMARK  133  A    between atoms: _341  and  _344
REMARK  134  A    between atoms: _344  and  _345
REMARK  135  A    between atoms: _345  and  _346
REMARK  136  A    between atoms: _351  and  _354
REMARK  137  A    between atoms: _354  and  _355
REMARK  138  A    between atoms: _365  and  _366
REMARK  139  A    between atoms: _374  and  _376
REMARK  140  A    between atoms: _376  and  _377
REMARK  141  A    between atoms: _376  and  _379
REMARK  142  A    between atoms: _379  and  _380
REMARK  143  A    between atoms: _383  and  _385
REMARK  144  A    between atoms: _385  and  _386
REMARK  145  A    between atoms: _385  and  _388
REMARK  146  A    between atoms: _388  and  _389
REMARK  147  A    between atoms: _394  and  _395
REMARK  148  A    between atoms: _397  and  _399
REMARK  149  A    between atoms: _399  and  _400
REMARK  150  A    between atoms: _399  and  _402
REMARK  151  A    between atoms: _402  and  _403
REMARK  152  A    between atoms: _409  and  _411
REMARK  153  A    between atoms: _411  and  _412
REMARK  154  A    between atoms: _411  and  _414
REMARK  155  A    between atoms: _414  and  _415
REMARK  156  A    between atoms: _420  and  _421
REMARK  157  A    between atoms: _423  and  _425
REMARK  158  A    between atoms: _425  and  _426
REMARK  159  A    between atoms: _425  and  _428
REMARK  160  A    between atoms: _428  and  _429
REMARK  161  A    between atoms: _429  and  _430
REMARK  162  A    between atoms: _430  and  _431
REMARK  163  A    between atoms: _440  and  _442
REMARK  164  A    between atoms: _442  and  _443
REMARK  165  A    between atoms: _442  and  _445
REMARK  166  A    between atoms: _445  and  _446
REMARK  167  A    between atoms: _449  and  _451
REMARK  168  A    between atoms: _451  and  _452
REMARK  169  A    between atoms: _454  and  _456
REMARK  170  A    between atoms: _456  and  _457
REMARK  171  A    between atoms: _456  and  _459
REMARK  172  A    between atoms: _459  and  _460
REMARK  173  A    between atoms: _466  and  _467
REMARK  174  A    between atoms: _472  and  _474
REMARK  175  A    between atoms: _474  and  _475
REMARK  176  A    between atoms: _477  and  _479
REMARK  177  A    between atoms: _479  and  _480
REMARK  178  A    between atoms: _479  and  _482
REMARK  179  A    between atoms: _482  and  _483
REMARK  180  A    between atoms: _489  and  _491
REMARK  181  A    between atoms: _491  and  _492
REMARK  182  A    between atoms: _491  and  _494
REMARK  183  A    between atoms: _494  and  _495
REMARK  184  A    between atoms: _500  and  _502
REMARK  185  A    between atoms: _502  and  _503
REMARK  186  A    between atoms: _502  and  _505
REMARK  187  A    between atoms: _505  and  _506
REMARK  188  A    between atoms: _506  and  _507
REMARK  189  A    between atoms: _507  and  _508
REMARK  190  A    between atoms: _508  and  ZN_790
REMARK  191  A    between atoms: _510  and  _512
REMARK  192  A    between atoms: _512  and  _513
REMARK  193  A    between atoms: _516  and  _518
REMARK  194  A    between atoms: _518  and  _519
REMARK  195  A    between atoms: _521  and  _523
REMARK  196  A    between atoms: _523  and  _524
REMARK  197  A    between atoms: _523  and  _526
REMARK  198  A    between atoms: _526  and  _527
REMARK  199  A    between atoms: _530  and  _532
REMARK  200  A    between atoms: _532  and  _533
REMARK  201  A    between atoms: _532  and  _535
REMARK  202  A    between atoms: _538  and  _540
REMARK  203  A    between atoms: _540  and  _541
REMARK  204  A    between atoms: _540  and  _543
REMARK  205  A    between atoms: _543  and  _544
REMARK  206  A    between atoms: _546  and  _548
REMARK  207  A    between atoms: _548  and  _549
REMARK  208  A    between atoms: _548  and  _551
REMARK  209  A    between atoms: _551  and  _552
REMARK  210  A    between atoms: _555  and  _557
REMARK  211  A    between atoms: _557  and  _558
REMARK  212  A    between atoms: _557  and  _560
REMARK  213  A    between atoms: _560  and  _561
REMARK  214  A    between atoms: _563  and  _565
REMARK  215  A    between atoms: _565  and  _566
REMARK  216  A    between atoms: _565  and  _568
REMARK  217  A    between atoms: _568  and  _569
REMARK  218  A    between atoms: _572  and  _574
REMARK  219  A    between atoms: _574  and  _575
REMARK  220  A    between atoms: _574  and  _577
REMARK  221  A    between atoms: _577  and  _578
REMARK  222  A    between atoms: _578  and  _579
REMARK  223  A    between atoms: _579  and  _580
REMARK  224  A    between atoms: _580  and  _581
REMARK  225  A    between atoms: _585  and  _587
REMARK  226  A    between atoms: _587  and  _588
REMARK  227  A    between atoms: _587  and  _590
REMARK  228  A    between atoms: _590  and  _591
REMARK  229  A    between atoms: _597  and  _599
REMARK  230  A    between atoms: _599  and  _600
REMARK  231  A    between atoms: _599  and  _602
REMARK  232  A    between atoms: _602  and  _603
REMARK  233  A    between atoms: _609  and  _611
REMARK  234  A    between atoms: _611  and  _612
REMARK  235  A    between atoms: _615  and  _617
REMARK  236  A    between atoms: _617  and  _618
REMARK  237  A    between atoms: _617  and  _620
REMARK  238  A    between atoms: _620  and  _621
REMARK  239  A    between atoms: _621  and  _622
REMARK  240  A    between atoms: _624  and  _626
REMARK  241  A    between atoms: _626  and  _627
REMARK  242  A    between atoms: _626  and  _629
REMARK  243  A    between atoms: _629  and  _630
REMARK  244  A    between atoms: _630  and  _631
REMARK  245  A    between atoms: _631  and  _632
REMARK  246  A    between atoms: _632  and  _633
REMARK  247  A    between atoms: _637  and  _639
REMARK  248  A    between atoms: _639  and  _640
REMARK  249  A    between atoms: _639  and  _642
REMARK  250  A    between atoms: _642  and  _643
REMARK  251  A    between atoms: _648  and  _649
REMARK  252  A    between atoms: _651  and  _653
REMARK  253  A    between atoms: _653  and  _654
REMARK  254  A    between atoms: _653  and  _656
REMARK  255  A    between atoms: _656  and  _657
REMARK  256  A    between atoms: _662  and  _664
REMARK  257  A    between atoms: _664  and  _665
REMARK  258  A    between atoms: _664  and  _667
REMARK  259  A    between atoms: _667  and  _668
REMARK  260  A    between atoms: _671  and  _673
REMARK  261  A    between atoms: _673  and  _674
REMARK  262  A    between atoms: _677  and  _679
REMARK  263  A    between atoms: _679  and  _680
REMARK  264  A    between atoms: _679  and  _682
REMARK  265  A    between atoms: _682  and  _683
REMARK  266  A    between atoms: _686  and  _688
REMARK  267  A    between atoms: _688  and  _689
REMARK  268  A    between atoms: _688  and  _691
REMARK  269  A    between atoms: _694  and  _696
REMARK  270  A    between atoms: _696  and  _697
REMARK  271  A    between atoms: _696  and  _699
REMARK  272  A    between atoms: _699  and  _700
REMARK  273  A    between atoms: _700  and  _701
REMARK  274  A    between atoms: _704  and  _706
REMARK  275  A    between atoms: _706  and  _707
REMARK  276  A    between atoms: _706  and  _709
REMARK  277  A    between atoms: _709  and  _710
REMARK  278  A    between atoms: _715  and  _716
REMARK  279  A    between atoms: _718  and  _720
REMARK  280  A    between atoms: _720  and  _721
REMARK  281  A    between atoms: _720  and  _723
REMARK  282  A    between atoms: _723  and  _724
REMARK  283  A    between atoms: _724  and  _725
REMARK  284  A    between atoms: _725  and  _726
REMARK  285  A    between atoms: _735  and  _737
REMARK  286  A    between atoms: _737  and  _738
REMARK  287  A    between atoms: _737  and  _740
REMARK  288  A    between atoms: _740  and  _741
REMARK  289  A    between atoms: _746  and  _747
REMARK  290  A    between atoms: _749  and  _751
REMARK  291  A    between atoms: _751  and  _752
REMARK  292  A    between atoms: _751  and  _754
REMARK  293  A    between atoms: _754  and  _755
REMARK  294  A    between atoms: _758  and  _760
REMARK  295  A    between atoms: _760  and  _761
REMARK  296  A    between atoms: _760  and  _763
REMARK  297  A    between atoms: _763  and  _764
REMARK  298  A    between atoms: _766  and  _768
REMARK  299  A    between atoms: _768  and  _769
REMARK  300  A    between atoms: _768  and  _771
REMARK  301  A    between atoms: _771  and  _772
REMARK  302  A    between atoms: _778  and  _780
REMARK  303  A    between atoms: _780  and  _781
REMARK  304  A    between atoms: _780  and  _783
REMARK  305  A    between atoms: _783  and  _784
REMARK  306  A    between atoms: _784  and  _785
REMARK                            x       y       z     vdW  Elec       q    Type
REMARK                         _______ _______ _______ _____ _____    ______ ____
ROOT
ATOM      1  O   HOH     1      28.048   6.237  15.717  0.00  0.00    +0.000 OA
ENDROOT
TORSDOF 0
REMARK  Name = ../refined-set-2016/4ca7/4ca7_pocket.pdb
REMARK  306 active torsions:
REMARK  status: ('A' for Active; 'I' for Inactive)
REMARK    1  A    between atoms: _1  and  _3
REMARK    2  A    between atoms: _3  and  _4
REMARK    3  A    between atoms: _3  and  _6
REMARK    4  A    between atoms: _6  and  _7
REMARK    5  A    between atoms: _7  and  _8
REMARK    6  A    between atoms: _8  and  _9
REMARK    7  A    between atoms: _9  and  _10
REMARK    8  A    between atoms: _14  and  _16
REMARK    9  A    between atoms: _16  and  _17
REMARK   10  A    between atoms: _16  and  _19
REMARK   11  A    between atoms: _19  and  _20
REMARK   12  A    between atoms: _20  and  _21
REMARK   13  A    between atoms: _24  and  _26
REMARK   14  A    between atoms: _26  and  _27
REMARK   15  A    between atoms: _26  and  _29
REMARK   16  A    between atoms: _29  and  _30
REMARK   17  A    between atoms: _30  and  _31
REMARK   18  A    between atoms: _34  and  _36
REMARK   19  A    between atoms: _36  and  _37
REMARK   20  A    between atoms: _36  and  _39
REMARK   21  A    between atoms: _39  and  _40
REMARK   22  A    between atoms: _45  and  _47
REMARK   23  A    between atoms: _47  and  _48
REMARK   24  A    between atoms: _47  and  _50
REMARK   25  A    between atoms: _50  and  _51
REMARK   26  A    between atoms: _61  and  _63
REMARK   27  A    between atoms: _63  and  _64
REMARK   28  A    between atoms: _63  and  _66
REMARK   29  A    between atoms: _66  and  _67
REMARK   30  A    between atoms: _67  and  _68
REMARK   31  A    between atoms: _73  and  _75
REMARK   32  A    between atoms: _75  and  _76
REMARK   33  A    between atoms: _75  and  _78
REMARK   34  A    between atoms: _78  and  _79
REMARK   35  A    between atoms: _79  and  _80
REMARK   36  A    between atoms: _85  and  _87
REMARK   37  A    between atoms: _87  and  _88
REMARK   38  A    between atoms: _87  and  _90
REMARK   39  A    between atoms: _90  and  _91
REMARK   40  A    between atoms: _93  and  _95
REMARK   41  A    between atoms: _95  and  _96
REMARK   42  A    between atoms: _95  and  _98
REMARK   43  A    between atoms: _101  and  _103
REMARK   44  A    between atoms: _103  and  _104
REMARK   45  A    between atoms: _103  and  _106
REMARK   46  A    between atoms: _108  and  _110
REMARK   47  A    between atoms: _110  and  _111
REMARK   48  A    between atoms: _110  and  _113
REMARK   49  A    between atoms: _113  and  _114
REMARK   50  A    between atoms: _119  and  _121
REMARK   51  A    between atoms: _121  and  _122
REMARK   52  A    between atoms: _125  and  _127
REMARK   53  A    between atoms: _127  and  _128
REMARK   54  A    between atoms: _127  and  _130
REMARK   55  A    between atoms: _130  and  _131
REMARK   56  A    between atoms: _133  and  _135
REMARK   57  A    between atoms: _135  and  _136
REMARK   58  A    between atoms: _139  and  _141
REMARK   59  A    between atoms: _141  and  _142
REMARK   60  A    between atoms: _141  and  _144
REMARK   61  A    between atoms: _144  and  _145
REMARK   62  A    between atoms: _155  and  _157
REMARK   63  A    between atoms: _157  and  _158
REMARK   64  A    between atoms: _157  and  _160
REMARK   65  A    between atoms: _160  and  _161
REMARK   66  A    between atoms: _164  and  _166
REMARK   67  A    between atoms: _166  and  _167
REMARK   68  A    between atoms: _166  and  _169
REMARK   69  A    between atoms: _169  and  _170
REMARK   70  A    between atoms: _175  and  _176
REMARK   71  A    between atoms: _178  and  _180
REMARK   72  A    between atoms: _180  and  _181
REMARK   73  A    between atoms: _180  and  _183
REMARK   74  A    between atoms: _183  and  _184
REMARK   75  A    between atoms: _184  and  _185
REMARK   76  A    between atoms: _185  and  _186
REMARK   77  A    between atoms: _195  and  _197
REMARK   78  A    between atoms: _197  and  _198
REMARK   79  A    between atoms: _197  and  _200
REMARK   80  A    between atoms: _200  and  _201
REMARK   81  A    between atoms: _204  and  _206
REMARK   82  A    between atoms: _206  and  _207
REMARK   83  A    between atoms: _206  and  _209
REMARK   84  A    between atoms: _209  and  _210
REMARK   85  A    between atoms: _210  and  _211
REMARK   86  A    between atoms: _211  and  _212
REMARK   87  A    between atoms: _212  and  _213
REMARK   88  A    between atoms: _217  and  _219
REMARK   89  A    between atoms: _219  and  _220
REMARK   90  A    between atoms: _219  and  _222
REMARK   91  A    between atoms: _222  and  _223
REMARK   92  A    between atoms: _223  and  _224
REMARK   93  A    between atoms: _229  and  _231
REMARK   94  A    between atoms: _231  and  _232
REMARK   95  A    between atoms: _231  and  _234
REMARK   96  A    between atoms: _234  and  _235
REMARK   97  A    between atoms: _235  and  _236
REMARK   98  A    between atoms: _236  and  _237
REMARK   99  A    between atoms: _246  and  _248
REMARK  100  A    between atoms: _248  and  _249
REMARK  101  A    between atoms: _248  and  _251
REMARK  102  A    between atoms: _251  and  _252
REMARK  103  A    between atoms: _252  and  _253
REMARK  104  A    between atoms: _258  and  _260
REMARK  105  A    between atoms: _260  and  _261
REMARK  106  A    between atoms: _260  and  _263
REMARK  107  A    between atoms: _263  and  _264
REMARK  108  A    between atoms: _267  and  _269
REMARK  109  A    between atoms: _269  and  _270
REMARK  110  A    between atoms: _269  and  _272
REMARK  111  A    between atoms: _272  and  _273
REMARK  112  A    between atoms: _273  and  _274
REMARK  113  A    between atoms: _279  and  _281
REMARK  114  A    between atoms: _281  and  _282
REMARK  115  A    between atoms: _281  and  _284
REMARK  116  A    between atoms: _284  and  _285
REMARK  117  A    between atoms: _288  and  _290
REMARK  118  A    between atoms: _290  and  _291
REMARK  119  A    between atoms: _290  and  _293
REMARK  120  A    between atoms: _293  and  _294
REMARK  121  A    between atoms: _300  and  _302
REMARK  122  A    between atoms: _302  and  _303
REMARK  123  A    between atoms: _302  and  _305
REMARK  124  A    between atoms: _305  and  _306
REMARK  125  A    between atoms: _309  and  _311
REMARK  126  A    between atoms: _311  and  _312
REMARK  127  A    between atoms: _311  and  _314
REMARK  128  A    between atoms: _317  and  _319
REMARK  129  A    between atoms: _319  and  _320
REMARK  130  A    between atoms: _319  and  _322
REMARK  131  A    between atoms: _322  and  _323
REMARK  132  A    between atoms: _328  and  _330
REMARK  133  A    between atoms: _341  and  _344
REMARK  134  A    between atoms: _344  and  _345
REMARK  135  A    between atoms: _345  and  _346
REMARK  136  A    between atoms: _351  and  _354
REMARK  137  A    between atoms: _354  and  _355
REMARK  138  A    between atoms: _365  and  _366
REMARK  139  A    between atoms: _374  and  _376
REMARK  140  A    between atoms: _376  and  _377
REMARK  141  A    between atoms: _376  and  _379
REMARK  142  A    between atoms: _379  and  _380
REMARK  143  A    between atoms: _383  and  _385
REMARK  144  A    between atoms: _385  and  _386
REMARK  145  A    between atoms: _385  and  _388
REMARK  146  A    between atoms: _388  and  _389
REMARK  147  A    between atoms: _394  and  _395
REMARK  148  A    between atoms: _397  and  _399
REMARK  149  A    between atoms: _399  and  _400
REMARK  150  A    between atoms: _399  and  _402
REMARK  151  A    between atoms: _402  and  _403
REMARK  152  A    between atoms: _409  and  _411
REMARK  153  A    between atoms: _411  and  _412
REMARK  154  A    between atoms: _411  and  _414
REMARK  155  A    between atoms: _414  and  _415
REMARK  156  A    between atoms: _420  and  _421
REMARK  157  A    between atoms: _423  and  _425
REMARK  158  A    between atoms: _425  and  _426
REMARK  159  A    between atoms: _425  and  _428
REMARK  160  A    between atoms: _428  and  _429
REMARK  161  A    between atoms: _429  and  _430
REMARK  162  A    between atoms: _430  and  _431
REMARK  163  A    between atoms: _440  and  _442
REMARK  164  A    between atoms: _442  and  _443
REMARK  165  A    between atoms: _442  and  _445
REMARK  166  A    between atoms: _445  and  _446
REMARK  167  A    between atoms: _449  and  _451
REMARK  168  A    between atoms: _451  and  _452
REMARK  169  A    between atoms: _454  and  _456
REMARK  170  A    between atoms: _456  and  _457
REMARK  171  A    between atoms: _456  and  _459
REMARK  172  A    between atoms: _459  and  _460
REMARK  173  A    between atoms: _466  and  _467
REMARK  174  A    between atoms: _472  and  _474
REMARK  175  A    between atoms: _474  and  _475
REMARK  176  A    between atoms: _477  and  _479
REMARK  177  A    between atoms: _479  and  _480
REMARK  178  A    between atoms: _479  and  _482
REMARK  179  A    between atoms: _482  and  _483
REMARK  180  A    between atoms: _489  and  _491
REMARK  181  A    between atoms: _491  and  _492
REMARK  182  A    between atoms: _491  and  _494
REMARK  183  A    between atoms: _494  and  _495
REMARK  184  A    between atoms: _500  and  _502
REMARK  185  A    between atoms: _502  and  _503
REMARK  186  A    between atoms: _502  and  _505
REMARK  187  A    between atoms: _505  and  _506
REMARK  188  A    between atoms: _506  and  _507
REMARK  189  A    between atoms: _507  and  _508
REMARK  190  A    between atoms: _508  and  ZN_790
REMARK  191  A    between atoms: _510  and  _512
REMARK  192  A    between atoms: _512  and  _513
REMARK  193  A    between atoms: _516  and  _518
REMARK  194  A    between atoms: _518  and  _519
REMARK  195  A    between atoms: _521  and  _523
REMARK  196  A    between atoms: _523  and  _524
REMARK  197  A    between atoms: _523  and  _526
REMARK  198  A    between atoms: _526  and  _527
REMARK  199  A    between atoms: _530  and  _532
REMARK  200  A    between atoms: _532  and  _533
REMARK  201  A    between atoms: _532  and  _535
REMARK  202  A    between atoms: _538  and  _540
REMARK  203  A    between atoms: _540  and  _541
REMARK  204  A    between atoms: _540  and  _543
REMARK  205  A    between atoms: _543  and  _544
REMARK  206  A    between atoms: _546  and  _548
REMARK  207  A    between atoms: _548  and  _549
REMARK  208  A    between atoms: _548  and  _551
REMARK  209  A    between atoms: _551  and  _552
REMARK  210  A    between atoms: _555  and  _557
REMARK  211  A    between atoms: _557  and  _558
REMARK  212  A    between atoms: _557  and  _560
REMARK  213  A    between atoms: _560  and  _561
REMARK  214  A    between atoms: _563  and  _565
REMARK  215  A    between atoms: _565  and  _566
REMARK  216  A    between atoms: _565  and  _568
REMARK  217  A    between atoms: _568  and  _569
REMARK  218  A    between atoms: _572  and  _574
REMARK  219  A    between atoms: _574  and  _575
REMARK  220  A    between atoms: _574  and  _577
REMARK  221  A    between atoms: _577  and  _578
REMARK  222  A    between atoms: _578  and  _579
REMARK  223  A    between atoms: _579  and  _580
REMARK  224  A    between atoms: _580  and  _581
REMARK  225  A    between atoms: _585  and  _587
REMARK  226  A    between atoms: _587  and  _588
REMARK  227  A    between atoms: _587  and  _590
REMARK  228  A    between atoms: _590  and  _591
REMARK  229  A    between atoms: _597  and  _599
REMARK  230  A    between atoms: _599  and  _600
REMARK  231  A    between atoms: _599  and  _602
REMARK  232  A    between atoms: _602  and  _603
REMARK  233  A    between atoms: _609  and  _611
REMARK  234  A    between atoms: _611  and  _612
REMARK  235  A    between atoms: _615  and  _617
REMARK  236  A    between atoms: _617  and  _618
REMARK  237  A    between atoms: _617  and  _620
REMARK  238  A    between atoms: _620  and  _621
REMARK  239  A    between atoms: _621  and  _622
REMARK  240  A    between atoms: _624  and  _626
REMARK  241  A    between atoms: _626  and  _627
REMARK  242  A    between atoms: _626  and  _629
REMARK  243  A    between atoms: _629  and  _630
REMARK  244  A    between atoms: _630  and  _631
REMARK  245  A    between atoms: _631  and  _632
REMARK  246  A    between atoms: _632  and  _633
REMARK  247  A    between atoms: _637  and  _639
REMARK  248  A    between atoms: _639  and  _640
REMARK  249  A    between atoms: _639  and  _642
REMARK  250  A    between atoms: _642  and  _643
REMARK  251  A    between atoms: _648  and  _649
REMARK  252  A    between atoms: _651  and  _653
REMARK  253  A    between atoms: _653  and  _654
REMARK  254  A    between atoms: _653  and  _656
REMARK  255  A    between atoms: _656  and  _657
REMARK  256  A    between atoms: _662  and  _664
REMARK  257  A    between atoms: _664  and  _665
REMARK  258  A    between atoms: _664  and  _667
REMARK  259  A    between atoms: _667  and  _668
REMARK  260  A    between atoms: _671  and  _673
REMARK  261  A    between atoms: _673  and  _674
REMARK  262  A    between atoms: _677  and  _679
REMARK  263  A    between atoms: _679  and  _680
REMARK  264  A    between atoms: _679  and  _682
REMARK  265  A    between atoms: _682  and  _683
REMARK  266  A    between atoms: _686  and  _688
REMARK  267  A    between atoms: _688  and  _689
REMARK  268  A    between atoms: _688  and  _691
REMARK  269  A    between atoms: _694  and  _696
REMARK  270  A    between atoms: _696  and  _697
REMARK  271  A    between atoms: _696  and  _699
REMARK  272  A    between atoms: _699  and  _700
REMARK  273  A    between atoms: _700  and  _701
REMARK  274  A    between atoms: _704  and  _706
REMARK  275  A    between atoms: _706  and  _707
REMARK  276  A    between atoms: _706  and  _709
REMARK  277  A    between atoms: _709  and  _710
REMARK  278  A    between atoms: _715  and  _716
REMARK  279  A    between atoms: _718  and  _720
REMARK  280  A    between atoms: _720  and  _721
REMARK  281  A    between atoms: _720  and  _723
REMARK  282  A    between atoms: _723  and  _724
REMARK  283  A    between atoms: _724  and  _725
REMARK  284  A    between atoms: _725  and  _726
REMARK  285  A    between atoms: _735  and  _737
REMARK  286  A    between atoms: _737  and  _738
REMARK  287  A    between atoms: _737  and  _740
REMARK  288  A    between atoms: _740  and  _741
REMARK  289  A    between atoms: _746  and  _747
REMARK  290  A    between atoms: _749  and  _751
REMARK  291  A    between atoms: _751  and  _752
REMARK  292  A    between atoms: _751  and  _754
REMARK  293  A    between atoms: _754  and  _755
REMARK  294  A    between atoms: _758  and  _760
REMARK  295  A    between atoms: _760  and  _761
REMARK  296  A    between atoms: _760  and  _763
REMARK  297  A    between atoms: _763  and  _764
REMARK  298  A    between atoms: _766  and  _768
REMARK  299  A    between atoms: _768  and  _769
REMARK  300  A    between atoms: _768  and  _771
REMARK  301  A    between atoms: _771  and  _772
REMARK  302  A    between atoms: _778  and  _780
REMARK  303  A    between atoms: _780  and  _781
REMARK  304  A    between atoms: _780  and  _783
REMARK  305  A    between atoms: _783  and  _784
REMARK  306  A    between atoms: _784  and  _785
REMARK                            x       y       z     vdW  Elec       q    Type
REMARK                         _______ _______ _______ _____ _____    ______ ____
ROOT
ATOM      1  O   HOH     1      32.670  -8.505   5.134  0.00  0.00    +0.000 OA
ENDROOT
TORSDOF 0
REMARK  Name = ../refined-set-2016/4ca7/4ca7_pocket.pdb
REMARK  306 active torsions:
REMARK  status: ('A' for Active; 'I' for Inactive)
REMARK    1  A    between atoms: _1  and  _3
REMARK    2  A    between atoms: _3  and  _4
REMARK    3  A    between atoms: _3  and  _6
REMARK    4  A    between atoms: _6  and  _7
REMARK    5  A    between atoms: _7  and  _8
REMARK    6  A    between atoms: _8  and  _9
REMARK    7  A    between atoms: _9  and  _10
REMARK    8  A    between atoms: _14  and  _16
REMARK    9  A    between atoms: _16  and  _17
REMARK   10  A    between atoms: _16  and  _19
REMARK   11  A    between atoms: _19  and  _20
REMARK   12  A    between atoms: _20  and  _21
REMARK   13  A    between atoms: _24  and  _26
REMARK   14  A    between atoms: _26  and  _27
REMARK   15  A    between atoms: _26  and  _29
REMARK   16  A    between atoms: _29  and  _30
REMARK   17  A    between atoms: _30  and  _31
REMARK   18  A    between atoms: _34  and  _36
REMARK   19  A    between atoms: _36  and  _37
REMARK   20  A    between atoms: _36  and  _39
REMARK   21  A    between atoms: _39  and  _40
REMARK   22  A    between atoms: _45  and  _47
REMARK   23  A    between atoms: _47  and  _48
REMARK   24  A    between atoms: _47  and  _50
REMARK   25  A    between atoms: _50  and  _51
REMARK   26  A    between atoms: _61  and  _63
REMARK   27  A    between atoms: _63  and  _64
REMARK   28  A    between atoms: _63  and  _66
REMARK   29  A    between atoms: _66  and  _67
REMARK   30  A    between atoms: _67  and  _68
REMARK   31  A    between atoms: _73  and  _75
REMARK   32  A    between atoms: _75  and  _76
REMARK   33  A    between atoms: _75  and  _78
REMARK   34  A    between atoms: _78  and  _79
REMARK   35  A    between atoms: _79  and  _80
REMARK   36  A    between atoms: _85  and  _87
REMARK   37  A    between atoms: _87  and  _88
REMARK   38  A    between atoms: _87  and  _90
REMARK   39  A    between atoms: _90  and  _91
REMARK   40  A    between atoms: _93  and  _95
REMARK   41  A    between atoms: _95  and  _96
REMARK   42  A    between atoms: _95  and  _98
REMARK   43  A    between atoms: _101  and  _103
REMARK   44  A    between atoms: _103  and  _104
REMARK   45  A    between atoms: _103  and  _106
REMARK   46  A    between atoms: _108  and  _110
REMARK   47  A    between atoms: _110  and  _111
REMARK   48  A    between atoms: _110  and  _113
REMARK   49  A    between atoms: _113  and  _114
REMARK   50  A    between atoms: _119  and  _121
REMARK   51  A    between atoms: _121  and  _122
REMARK   52  A    between atoms: _125  and  _127
REMARK   53  A    between atoms: _127  and  _128
REMARK   54  A    between atoms: _127  and  _130
REMARK   55  A    between atoms: _130  and  _131
REMARK   56  A    between atoms: _133  and  _135
REMARK   57  A    between atoms: _135  and  _136
REMARK   58  A    between atoms: _139  and  _141
REMARK   59  A    between atoms: _141  and  _142
REMARK   60  A    between atoms: _141  and  _144
REMARK   61  A    between atoms: _144  and  _145
REMARK   62  A    between atoms: _155  and  _157
REMARK   63  A    between atoms: _157  and  _158
REMARK   64  A    between atoms: _157  and  _160
REMARK   65  A    between atoms: _160  and  _161
REMARK   66  A    between atoms: _164  and  _166
REMARK   67  A    between atoms: _166  and  _167
REMARK   68  A    between atoms: _166  and  _169
REMARK   69  A    between atoms: _169  and  _170
REMARK   70  A    between atoms: _175  and  _176
REMARK   71  A    between atoms: _178  and  _180
REMARK   72  A    between atoms: _180  and  _181
REMARK   73  A    between atoms: _180  and  _183
REMARK   74  A    between atoms: _183  and  _184
REMARK   75  A    between atoms: _184  and  _185
REMARK   76  A    between atoms: _185  and  _186
REMARK   77  A    between atoms: _195  and  _197
REMARK   78  A    between atoms: _197  and  _198
REMARK   79  A    between atoms: _197  and  _200
REMARK   80  A    between atoms: _200  and  _201
REMARK   81  A    between atoms: _204  and  _206
REMARK   82  A    between atoms: _206  and  _207
REMARK   83  A    between atoms: _206  and  _209
REMARK   84  A    between atoms: _209  and  _210
REMARK   85  A    between atoms: _210  and  _211
REMARK   86  A    between atoms: _211  and  _212
REMARK   87  A    between atoms: _212  and  _213
REMARK   88  A    between atoms: _217  and  _219
REMARK   89  A    between atoms: _219  and  _220
REMARK   90  A    between atoms: _219  and  _222
REMARK   91  A    between atoms: _222  and  _223
REMARK   92  A    between atoms: _223  and  _224
REMARK   93  A    between atoms: _229  and  _231
REMARK   94  A    between atoms: _231  and  _232
REMARK   95  A    between atoms: _231  and  _234
REMARK   96  A    between atoms: _234  and  _235
REMARK   97  A    between atoms: _235  and  _236
REMARK   98  A    between atoms: _236  and  _237
REMARK   99  A    between atoms: _246  and  _248
REMARK  100  A    between atoms: _248  and  _249
REMARK  101  A    between atoms: _248  and  _251
REMARK  102  A    between atoms: _251  and  _252
REMARK  103  A    between atoms: _252  and  _253
REMARK  104  A    between atoms: _258  and  _260
REMARK  105  A    between atoms: _260  and  _261
REMARK  106  A    between atoms: _260  and  _263
REMARK  107  A    between atoms: _263  and  _264
REMARK  108  A    between atoms: _267  and  _269
REMARK  109  A    between atoms: _269  and  _270
REMARK  110  A    between atoms: _269  and  _272
REMARK  111  A    between atoms: _272  and  _273
REMARK  112  A    between atoms: _273  and  _274
REMARK  113  A    between atoms: _279  and  _281
REMARK  114  A    between atoms: _281  and  _282
REMARK  115  A    between atoms: _281  and  _284
REMARK  116  A    between atoms: _284  and  _285
REMARK  117  A    between atoms: _288  and  _290
REMARK  118  A    between atoms: _290  and  _291
REMARK  119  A    between atoms: _290  and  _293
REMARK  120  A    between atoms: _293  and  _294
REMARK  121  A    between atoms: _300  and  _302
REMARK  122  A    between atoms: _302  and  _303
REMARK  123  A    between atoms: _302  and  _305
REMARK  124  A    between atoms: _305  and  _306
REMARK  125  A    between atoms: _309  and  _311
REMARK  126  A    between atoms: _311  and  _312
REMARK  127  A    between atoms: _311  and  _314
REMARK  128  A    between atoms: _317  and  _319
REMARK  129  A    between atoms: _319  and  _320
REMARK  130  A    between atoms: _319  and  _322
REMARK  131  A    between atoms: _322  and  _323
REMARK  132  A    between atoms: _328  and  _330
REMARK  133  A    between atoms: _341  and  _344
REMARK  134  A    between atoms: _344  and  _345
REMARK  135  A    between atoms: _345  and  _346
REMARK  136  A    between atoms: _351  and  _354
REMARK  137  A    between atoms: _354  and  _355
REMARK  138  A    between atoms: _365  and  _366
REMARK  139  A    between atoms: _374  and  _376
REMARK  140  A    between atoms: _376  and  _377
REMARK  141  A    between atoms: _376  and  _379
REMARK  142  A    between atoms: _379  and  _380
REMARK  143  A    between atoms: _383  and  _385
REMARK  144  A    between atoms: _385  and  _386
REMARK  145  A    between atoms: _385  and  _388
REMARK  146  A    between atoms: _388  and  _389
REMARK  147  A    between atoms: _394  and  _395
REMARK  148  A    between atoms: _397  and  _399
REMARK  149  A    between atoms: _399  and  _400
REMARK  150  A    between atoms: _399  and  _402
REMARK  151  A    between atoms: _402  and  _403
REMARK  152  A    between atoms: _409  and  _411
REMARK  153  A    between atoms: _411  and  _412
REMARK  154  A    between atoms: _411  and  _414
REMARK  155  A    between atoms: _414  and  _415
REMARK  156  A    between atoms: _420  and  _421
REMARK  157  A    between atoms: _423  and  _425
REMARK  158  A    between atoms: _425  and  _426
REMARK  159  A    between atoms: _425  and  _428
REMARK  160  A    between atoms: _428  and  _429
REMARK  161  A    between atoms: _429  and  _430
REMARK  162  A    between atoms: _430  and  _431
REMARK  163  A    between atoms: _440  and  _442
REMARK  164  A    between atoms: _442  and  _443
REMARK  165  A    between atoms: _442  and  _445
REMARK  166  A    between atoms: _445  and  _446
REMARK  167  A    between atoms: _449  and  _451
REMARK  168  A    between atoms: _451  and  _452
REMARK  169  A    between atoms: _454  and  _456
REMARK  170  A    between atoms: _456  and  _457
REMARK  171  A    between atoms: _456  and  _459
REMARK  172  A    between atoms: _459  and  _460
REMARK  173  A    between atoms: _466  and  _467
REMARK  174  A    between atoms: _472  and  _474
REMARK  175  A    between atoms: _474  and  _475
REMARK  176  A    between atoms: _477  and  _479
REMARK  177  A    between atoms: _479  and  _480
REMARK  178  A    between atoms: _479  and  _482
REMARK  179  A    between atoms: _482  and  _483
REMARK  180  A    between atoms: _489  and  _491
REMARK  181  A    between atoms: _491  and  _492
REMARK  182  A    between atoms: _491  and  _494
REMARK  183  A    between atoms: _494  and  _495
REMARK  184  A    between atoms: _500  and  _502
REMARK  185  A    between atoms: _502  and  _503
REMARK  186  A    between atoms: _502  and  _505
REMARK  187  A    between atoms: _505  and  _506
REMARK  188  A    between atoms: _506  and  _507
REMARK  189  A    between atoms: _507  and  _508
REMARK  190  A    between atoms: _508  and  ZN_790
REMARK  191  A    between atoms: _510  and  _512
REMARK  192  A    between atoms: _512  and  _513
REMARK  193  A    between atoms: _516  and  _518
REMARK  194  A    between atoms: _518  and  _519
REMARK  195  A    between atoms: _521  and  _523
REMARK  196  A    between atoms: _523  and  _524
REMARK  197  A    between atoms: _523  and  _526
REMARK  198  A    between atoms: _526  and  _527
REMARK  199  A    between atoms: _530  and  _532
REMARK  200  A    between atoms: _532  and  _533
REMARK  201  A    between atoms: _532  and  _535
REMARK  202  A    between atoms: _538  and  _540
REMARK  203  A    between atoms: _540  and  _541
REMARK  204  A    between atoms: _540  and  _543
REMARK  205  A    between atoms: _543  and  _544
REMARK  206  A    between atoms: _546  and  _548
REMARK  207  A    between atoms: _548  and  _549
REMARK  208  A    between atoms: _548  and  _551
REMARK  209  A    between atoms: _551  and  _552
REMARK  210  A    between atoms: _555  and  _557
REMARK  211  A    between atoms: _557  and  _558
REMARK  212  A    between atoms: _557  and  _560
REMARK  213  A    between atoms: _560  and  _561
REMARK  214  A    between atoms: _563  and  _565
REMARK  215  A    between atoms: _565  and  _566
REMARK  216  A    between atoms: _565  and  _568
REMARK  217  A    between atoms: _568  and  _569
REMARK  218  A    between atoms: _572  and  _574
REMARK  219  A    between atoms: _574  and  _575
REMARK  220  A    between atoms: _574  and  _577
REMARK  221  A    between atoms: _577  and  _578
REMARK  222  A    between atoms: _578  and  _579
REMARK  223  A    between atoms: _579  and  _580
REMARK  224  A    between atoms: _580  and  _581
REMARK  225  A    between atoms: _585  and  _587
REMARK  226  A    between atoms: _587  and  _588
REMARK  227  A    between atoms: _587  and  _590
REMARK  228  A    between atoms: _590  and  _591
REMARK  229  A    between atoms: _597  and  _599
REMARK  230  A    between atoms: _599  and  _600
REMARK  231  A    between atoms: _599  and  _602
REMARK  232  A    between atoms: _602  and  _603
REMARK  233  A    between atoms: _609  and  _611
REMARK  234  A    between atoms: _611  and  _612
REMARK  235  A    between atoms: _615  and  _617
REMARK  236  A    between atoms: _617  and  _618
REMARK  237  A    between atoms: _617  and  _620
REMARK  238  A    between atoms: _620  and  _621
REMARK  239  A    between atoms: _621  and  _622
REMARK  240  A    between atoms: _624  and  _626
REMARK  241  A    between atoms: _626  and  _627
REMARK  242  A    between atoms: _626  and  _629
REMARK  243  A    between atoms: _629  and  _630
REMARK  244  A    between atoms: _630  and  _631
REMARK  245  A    between atoms: _631  and  _632
REMARK  246  A    between atoms: _632  and  _633
REMARK  247  A    between atoms: _637  and  _639
REMARK  248  A    between atoms: _639  and  _640
REMARK  249  A    between atoms: _639  and  _642
REMARK  250  A    between atoms: _642  and  _643
REMARK  251  A    between atoms: _648  and  _649
REMARK  252  A    between atoms: _651  and  _653
REMARK  253  A    between atoms: _653  and  _654
REMARK  254  A    between atoms: _653  and  _656
REMARK  255  A    between atoms: _656  and  _657
REMARK  256  A    between atoms: _662  and  _664
REMARK  257  A    between atoms: _664  and  _665
REMARK  258  A    between atoms: _664  and  _667
REMARK  259  A    between atoms: _667  and  _668
REMARK  260  A    between atoms: _671  and  _673
REMARK  261  A    between atoms: _673  and  _674
REMARK  262  A    between atoms: _677  and  _679
REMARK  263  A    between atoms: _679  and  _680
REMARK  264  A    between atoms: _679  and  _682
REMARK  265  A    between atoms: _682  and  _683
REMARK  266  A    between atoms: _686  and  _688
REMARK  267  A    between atoms: _688  and  _689
REMARK  268  A    between atoms: _688  and  _691
REMARK  269  A    between atoms: _694  and  _696
REMARK  270  A    between atoms: _696  and  _697
REMARK  271  A    between atoms: _696  and  _699
REMARK  272  A    between atoms: _699  and  _700
REMARK  273  A    between atoms: _700  and  _701
REMARK  274  A    between atoms: _704  and  _706
REMARK  275  A    between atoms: _706  and  _707
REMARK  276  A    between atoms: _706  and  _709
REMARK  277  A    between atoms: _709  and  _710
REMARK  278  A    between atoms: _715  and  _716
REMARK  279  A    between atoms: _718  and  _720
REMARK  280  A    between atoms: _720  and  _721
REMARK  281  A    between atoms: _720  and  _723
REMARK  282  A    between atoms: _723  and  _724
REMARK  283  A    between atoms: _724  and  _725
REMARK  284  A    between atoms: _725  and  _726
REMARK  285  A    between atoms: _735  and  _737
REMARK  286  A    between atoms: _737  and  _738
REMARK  287  A    between atoms: _737  and  _740
REMARK  288  A    between atoms: _740  and  _741
REMARK  289  A    between atoms: _746  and  _747
REMARK  290  A    between atoms: _749  and  _751
REMARK  291  A    between atoms: _751  and  _752
REMARK  292  A    between atoms: _751  and  _754
REMARK  293  A    between atoms: _754  and  _755
REMARK  294  A    between atoms: _758  and  _760
REMARK  295  A    between atoms: _760  and  _761
REMARK  296  A    between atoms: _760  and  _763
REMARK  297  A    between atoms: _763  and  _764
REMARK  298  A    between atoms: _766  and  _768
REMARK  299  A    between atoms: _768  and  _769
REMARK  300  A    between atoms: _768  and  _771
REMARK  301  A    between atoms: _771  and  _772
REMARK  302  A    between atoms: _778  and  _780
REMARK  303  A    between atoms: _780  and  _781
REMARK  304  A    between atoms: _780  and  _783
REMARK  305  A    between atoms: _783  and  _784
REMARK  306  A    between atoms: _784  and  _785
REMARK                            x       y       z     vdW  Elec       q    Type
REMARK                         _______ _______ _______ _____ _____    ______ ____
ROOT
ATOM      1  O   HOH     1      32.072  -5.710   5.221  0.00  0.00    +0.000 OA
ENDROOT
TORSDOF 0
REMARK  Name = ../refined-set-2016/4ca7/4ca7_pocket.pdb
REMARK  306 active torsions:
REMARK  status: ('A' for Active; 'I' for Inactive)
REMARK    1  A    between atoms: _1  and  _3
REMARK    2  A    between atoms: _3  and  _4
REMARK    3  A    between atoms: _3  and  _6
REMARK    4  A    between atoms: _6  and  _7
REMARK    5  A    between atoms: _7  and  _8
REMARK    6  A    between atoms: _8  and  _9
REMARK    7  A    between atoms: _9  and  _10
REMARK    8  A    between atoms: _14  and  _16
REMARK    9  A    between atoms: _16  and  _17
REMARK   10  A    between atoms: _16  and  _19
REMARK   11  A    between atoms: _19  and  _20
REMARK   12  A    between atoms: _20  and  _21
REMARK   13  A    between atoms: _24  and  _26
REMARK   14  A    between atoms: _26  and  _27
REMARK   15  A    between atoms: _26  and  _29
REMARK   16  A    between atoms: _29  and  _30
REMARK   17  A    between atoms: _30  and  _31
REMARK   18  A    between atoms: _34  and  _36
REMARK   19  A    between atoms: _36  and  _37
REMARK   20  A    between atoms: _36  and  _39
REMARK   21  A    between atoms: _39  and  _40
REMARK   22  A    between atoms: _45  and  _47
REMARK   23  A    between atoms: _47  and  _48
REMARK   24  A    between atoms: _47  and  _50
REMARK   25  A    between atoms: _50  and  _51
REMARK   26  A    between atoms: _61  and  _63
REMARK   27  A    between atoms: _63  and  _64
REMARK   28  A    between atoms: _63  and  _66
REMARK   29  A    between atoms: _66  and  _67
REMARK   30  A    between atoms: _67  and  _68
REMARK   31  A    between atoms: _73  and  _75
REMARK   32  A    between atoms: _75  and  _76
REMARK   33  A    between atoms: _75  and  _78
REMARK   34  A    between atoms: _78  and  _79
REMARK   35  A    between atoms: _79  and  _80
REMARK   36  A    between atoms: _85  and  _87
REMARK   37  A    between atoms: _87  and  _88
REMARK   38  A    between atoms: _87  and  _90
REMARK   39  A    between atoms: _90  and  _91
REMARK   40  A    between atoms: _93  and  _95
REMARK   41  A    between atoms: _95  and  _96
REMARK   42  A    between atoms: _95  and  _98
REMARK   43  A    between atoms: _101  and  _103
REMARK   44  A    between atoms: _103  and  _104
REMARK   45  A    between atoms: _103  and  _106
REMARK   46  A    between atoms: _108  and  _110
REMARK   47  A    between atoms: _110  and  _111
REMARK   48  A    between atoms: _110  and  _113
REMARK   49  A    between atoms: _113  and  _114
REMARK   50  A    between atoms: _119  and  _121
REMARK   51  A    between atoms: _121  and  _122
REMARK   52  A    between atoms: _125  and  _127
REMARK   53  A    between atoms: _127  and  _128
REMARK   54  A    between atoms: _127  and  _130
REMARK   55  A    between atoms: _130  and  _131
REMARK   56  A    between atoms: _133  and  _135
REMARK   57  A    between atoms: _135  and  _136
REMARK   58  A    between atoms: _139  and  _141
REMARK   59  A    between atoms: _141  and  _142
REMARK   60  A    between atoms: _141  and  _144
REMARK   61  A    between atoms: _144  and  _145
REMARK   62  A    between atoms: _155  and  _157
REMARK   63  A    between atoms: _157  and  _158
REMARK   64  A    between atoms: _157  and  _160
REMARK   65  A    between atoms: _160  and  _161
REMARK   66  A    between atoms: _164  and  _166
REMARK   67  A    between atoms: _166  and  _167
REMARK   68  A    between atoms: _166  and  _169
REMARK   69  A    between atoms: _169  and  _170
REMARK   70  A    between atoms: _175  and  _176
REMARK   71  A    between atoms: _178  and  _180
REMARK   72  A    between atoms: _180  and  _181
REMARK   73  A    between atoms: _180  and  _183
REMARK   74  A    between atoms: _183  and  _184
REMARK   75  A    between atoms: _184  and  _185
REMARK   76  A    between atoms: _185  and  _186
REMARK   77  A    between atoms: _195  and  _197
REMARK   78  A    between atoms: _197  and  _198
REMARK   79  A    between atoms: _197  and  _200
REMARK   80  A    between atoms: _200  and  _201
REMARK   81  A    between atoms: _204  and  _206
REMARK   82  A    between atoms: _206  and  _207
REMARK   83  A    between atoms: _206  and  _209
REMARK   84  A    between atoms: _209  and  _210
REMARK   85  A    between atoms: _210  and  _211
REMARK   86  A    between atoms: _211  and  _212
REMARK   87  A    between atoms: _212  and  _213
REMARK   88  A    between atoms: _217  and  _219
REMARK   89  A    between atoms: _219  and  _220
REMARK   90  A    between atoms: _219  and  _222
REMARK   91  A    between atoms: _222  and  _223
REMARK   92  A    between atoms: _223  and  _224
REMARK   93  A    between atoms: _229  and  _231
REMARK   94  A    between atoms: _231  and  _232
REMARK   95  A    between atoms: _231  and  _234
REMARK   96  A    between atoms: _234  and  _235
REMARK   97  A    between atoms: _235  and  _236
REMARK   98  A    between atoms: _236  and  _237
REMARK   99  A    between atoms: _246  and  _248
REMARK  100  A    between atoms: _248  and  _249
REMARK  101  A    between atoms: _248  and  _251
REMARK  102  A    between atoms: _251  and  _252
REMARK  103  A    between atoms: _252  and  _253
REMARK  104  A    between atoms: _258  and  _260
REMARK  105  A    between atoms: _260  and  _261
REMARK  106  A    between atoms: _260  and  _263
REMARK  107  A    between atoms: _263  and  _264
REMARK  108  A    between atoms: _267  and  _269
REMARK  109  A    between atoms: _269  and  _270
REMARK  110  A    between atoms: _269  and  _272
REMARK  111  A    between atoms: _272  and  _273
REMARK  112  A    between atoms: _273  and  _274
REMARK  113  A    between atoms: _279  and  _281
REMARK  114  A    between atoms: _281  and  _282
REMARK  115  A    between atoms: _281  and  _284
REMARK  116  A    between atoms: _284  and  _285
REMARK  117  A    between atoms: _288  and  _290
REMARK  118  A    between atoms: _290  and  _291
REMARK  119  A    between atoms: _290  and  _293
REMARK  120  A    between atoms: _293  and  _294
REMARK  121  A    between atoms: _300  and  _302
REMARK  122  A    between atoms: _302  and  _303
REMARK  123  A    between atoms: _302  and  _305
REMARK  124  A    between atoms: _305  and  _306
REMARK  125  A    between atoms: _309  and  _311
REMARK  126  A    between atoms: _311  and  _312
REMARK  127  A    between atoms: _311  and  _314
REMARK  128  A    between atoms: _317  and  _319
REMARK  129  A    between atoms: _319  and  _320
REMARK  130  A    between atoms: _319  and  _322
REMARK  131  A    between atoms: _322  and  _323
REMARK  132  A    between atoms: _328  and  _330
REMARK  133  A    between atoms: _341  and  _344
REMARK  134  A    between atoms: _344  and  _345
REMARK  135  A    between atoms: _345  and  _346
REMARK  136  A    between atoms: _351  and  _354
REMARK  137  A    between atoms: _354  and  _355
REMARK  138  A    between atoms: _365  and  _366
REMARK  139  A    between atoms: _374  and  _376
REMARK  140  A    between atoms: _376  and  _377
REMARK  141  A    between atoms: _376  and  _379
REMARK  142  A    between atoms: _379  and  _380
REMARK  143  A    between atoms: _383  and  _385
REMARK  144  A    between atoms: _385  and  _386
REMARK  145  A    between atoms: _385  and  _388
REMARK  146  A    between atoms: _388  and  _389
REMARK  147  A    between atoms: _394  and  _395
REMARK  148  A    between atoms: _397  and  _399
REMARK  149  A    between atoms: _399  and  _400
REMARK  150  A    between atoms: _399  and  _402
REMARK  151  A    between atoms: _402  and  _403
REMARK  152  A    between atoms: _409  and  _411
REMARK  153  A    between atoms: _411  and  _412
REMARK  154  A    between atoms: _411  and  _414
REMARK  155  A    between atoms: _414  and  _415
REMARK  156  A    between atoms: _420  and  _421
REMARK  157  A    between atoms: _423  and  _425
REMARK  158  A    between atoms: _425  and  _426
REMARK  159  A    between atoms: _425  and  _428
REMARK  160  A    between atoms: _428  and  _429
REMARK  161  A    between atoms: _429  and  _430
REMARK  162  A    between atoms: _430  and  _431
REMARK  163  A    between atoms: _440  and  _442
REMARK  164  A    between atoms: _442  and  _443
REMARK  165  A    between atoms: _442  and  _445
REMARK  166  A    between atoms: _445  and  _446
REMARK  167  A    between atoms: _449  and  _451
REMARK  168  A    between atoms: _451  and  _452
REMARK  169  A    between atoms: _454  and  _456
REMARK  170  A    between atoms: _456  and  _457
REMARK  171  A    between atoms: _456  and  _459
REMARK  172  A    between atoms: _459  and  _460
REMARK  173  A    between atoms: _466  and  _467
REMARK  174  A    between atoms: _472  and  _474
REMARK  175  A    between atoms: _474  and  _475
REMARK  176  A    between atoms: _477  and  _479
REMARK  177  A    between atoms: _479  and  _480
REMARK  178  A    between atoms: _479  and  _482
REMARK  179  A    between atoms: _482  and  _483
REMARK  180  A    between atoms: _489  and  _491
REMARK  181  A    between atoms: _491  and  _492
REMARK  182  A    between atoms: _491  and  _494
REMARK  183  A    between atoms: _494  and  _495
REMARK  184  A    between atoms: _500  and  _502
REMARK  185  A    between atoms: _502  and  _503
REMARK  186  A    between atoms: _502  and  _505
REMARK  187  A    between atoms: _505  and  _506
REMARK  188  A    between atoms: _506  and  _507
REMARK  189  A    between atoms: _507  and  _508
REMARK  190  A    between atoms: _508  and  ZN_790
REMARK  191  A    between atoms: _510  and  _512
REMARK  192  A    between atoms: _512  and  _513
REMARK  193  A    between atoms: _516  and  _518
REMARK  194  A    between atoms: _518  and  _519
REMARK  195  A    between atoms: _521  and  _523
REMARK  196  A    between atoms: _523  and  _524
REMARK  197  A    between atoms: _523  and  _526
REMARK  198  A    between atoms: _526  and  _527
REMARK  199  A    between atoms: _530  and  _532
REMARK  200  A    between atoms: _532  and  _533
REMARK  201  A    between atoms: _532  and  _535
REMARK  202  A    between atoms: _538  and  _540
REMARK  203  A    between atoms: _540  and  _541
REMARK  204  A    between atoms: _540  and  _543
REMARK  205  A    between atoms: _543  and  _544
REMARK  206  A    between atoms: _546  and  _548
REMARK  207  A    between atoms: _548  and  _549
REMARK  208  A    between atoms: _548  and  _551
REMARK  209  A    between atoms: _551  and  _552
REMARK  210  A    between atoms: _555  and  _557
REMARK  211  A    between atoms: _557  and  _558
REMARK  212  A    between atoms: _557  and  _560
REMARK  213  A    between atoms: _560  and  _561
REMARK  214  A    between atoms: _563  and  _565
REMARK  215  A    between atoms: _565  and  _566
REMARK  216  A    between atoms: _565  and  _568
REMARK  217  A    between atoms: _568  and  _569
REMARK  218  A    between atoms: _572  and  _574
REMARK  219  A    between atoms: _574  and  _575
REMARK  220  A    between atoms: _574  and  _577
REMARK  221  A    between atoms: _577  and  _578
REMARK  222  A    between atoms: _578  and  _579
REMARK  223  A    between atoms: _579  and  _580
REMARK  224  A    between atoms: _580  and  _581
REMARK  225  A    between atoms: _585  and  _587
REMARK  226  A    between atoms: _587  and  _588
REMARK  227  A    between atoms: _587  and  _590
REMARK  228  A    between atoms: _590  and  _591
REMARK  229  A    between atoms: _597  and  _599
REMARK  230  A    between atoms: _599  and  _600
REMARK  231  A    between atoms: _599  and  _602
REMARK  232  A    between atoms: _602  and  _603
REMARK  233  A    between atoms: _609  and  _611
REMARK  234  A    between atoms: _611  and  _612
REMARK  235  A    between atoms: _615  and  _617
REMARK  236  A    between atoms: _617  and  _618
REMARK  237  A    between atoms: _617  and  _620
REMARK  238  A    between atoms: _620  and  _621
REMARK  239  A    between atoms: _621  and  _622
REMARK  240  A    between atoms: _624  and  _626
REMARK  241  A    between atoms: _626  and  _627
REMARK  242  A    between atoms: _626  and  _629
REMARK  243  A    between atoms: _629  and  _630
REMARK  244  A    between atoms: _630  and  _631
REMARK  245  A    between atoms: _631  and  _632
REMARK  246  A    between atoms: _632  and  _633
REMARK  247  A    between atoms: _637  and  _639
REMARK  248  A    between atoms: _639  and  _640
REMARK  249  A    between atoms: _639  and  _642
REMARK  250  A    between atoms: _642  and  _643
REMARK  251  A    between atoms: _648  and  _649
REMARK  252  A    between atoms: _651  and  _653
REMARK  253  A    between atoms: _653  and  _654
REMARK  254  A    between atoms: _653  and  _656
REMARK  255  A    between atoms: _656  and  _657
REMARK  256  A    between atoms: _662  and  _664
REMARK  257  A    between atoms: _664  and  _665
REMARK  258  A    between atoms: _664  and  _667
REMARK  259  A    between atoms: _667  and  _668
REMARK  260  A    between atoms: _671  and  _673
REMARK  261  A    between atoms: _673  and  _674
REMARK  262  A    between atoms: _677  and  _679
REMARK  263  A    between atoms: _679  and  _680
REMARK  264  A    between atoms: _679  and  _682
REMARK  265  A    between atoms: _682  and  _683
REMARK  266  A    between atoms: _686  and  _688
REMARK  267  A    between atoms: _688  and  _689
REMARK  268  A    between atoms: _688  and  _691
REMARK  269  A    between atoms: _694  and  _696
REMARK  270  A    between atoms: _696  and  _697
REMARK  271  A    between atoms: _696  and  _699
REMARK  272  A    between atoms: _699  and  _700
REMARK  273  A    between atoms: _700  and  _701
REMARK  274  A    between atoms: _704  and  _706
REMARK  275  A    between atoms: _706  and  _707
REMARK  276  A    between atoms: _706  and  _709
REMARK  277  A    between atoms: _709  and  _710
REMARK  278  A    between atoms: _715  and  _716
REMARK  279  A    between atoms: _718  and  _720
REMARK  280  A    between atoms: _720  and  _721
REMARK  281  A    between atoms: _720  and  _723
REMARK  282  A    between atoms: _723  and  _724
REMARK  283  A    between atoms: _724  and  _725
REMARK  284  A    between atoms: _725  and  _726
REMARK  285  A    between atoms: _735  and  _737
REMARK  286  A    between atoms: _737  and  _738
REMARK  287  A    between atoms: _737  and  _740
REMARK  288  A    between atoms: _740  and  _741
REMARK  289  A    between atoms: _746  and  _747
REMARK  290  A    between atoms: _749  and  _751
REMARK  291  A    between atoms: _751  and  _752
REMARK  292  A    between atoms: _751  and  _754
REMARK  293  A    between atoms: _754  and  _755
REMARK  294  A    between atoms: _758  and  _760
REMARK  295  A    between atoms: _760  and  _761
REMARK  296  A    between atoms: _760  and  _763
REMARK  297  A    between atoms: _763  and  _764
REMARK  298  A    between atoms: _766  and  _768
REMARK  299  A    between atoms: _768  and  _769
REMARK  300  A    between atoms: _768  and  _771
REMARK  301  A    between atoms: _771  and  _772
REMARK  302  A    between atoms: _778  and  _780
REMARK  303  A    between atoms: _780  and  _781
REMARK  304  A    between atoms: _780  and  _783
REMARK  305  A    between atoms: _783  and  _784
REMARK  306  A    between atoms: _784  and  _785
REMARK                            x       y       z     vdW  Elec       q    Type
REMARK                         _______ _______ _______ _____ _____    ______ ____
ROOT
ATOM      1  O   HOH     1      30.245 -12.524  13.138  0.00  0.00    +0.000 OA
ENDROOT
TORSDOF 0
REMARK  Name = ../refined-set-2016/4ca7/4ca7_pocket.pdb
REMARK  306 active torsions:
REMARK  status: ('A' for Active; 'I' for Inactive)
REMARK    1  A    between atoms: _1  and  _3
REMARK    2  A    between atoms: _3  and  _4
REMARK    3  A    between atoms: _3  and  _6
REMARK    4  A    between atoms: _6  and  _7
REMARK    5  A    between atoms: _7  and  _8
REMARK    6  A    between atoms: _8  and  _9
REMARK    7  A    between atoms: _9  and  _10
REMARK    8  A    between atoms: _14  and  _16
REMARK    9  A    between atoms: _16  and  _17
REMARK   10  A    between atoms: _16  and  _19
REMARK   11  A    between atoms: _19  and  _20
REMARK   12  A    between atoms: _20  and  _21
REMARK   13  A    between atoms: _24  and  _26
REMARK   14  A    between atoms: _26  and  _27
REMARK   15  A    between atoms: _26  and  _29
REMARK   16  A    between atoms: _29  and  _30
REMARK   17  A    between atoms: _30  and  _31
REMARK   18  A    between atoms: _34  and  _36
REMARK   19  A    between atoms: _36  and  _37
REMARK   20  A    between atoms: _36  and  _39
REMARK   21  A    between atoms: _39  and  _40
REMARK   22  A    between atoms: _45  and  _47
REMARK   23  A    between atoms: _47  and  _48
REMARK   24  A    between atoms: _47  and  _50
REMARK   25  A    between atoms: _50  and  _51
REMARK   26  A    between atoms: _61  and  _63
REMARK   27  A    between atoms: _63  and  _64
REMARK   28  A    between atoms: _63  and  _66
REMARK   29  A    between atoms: _66  and  _67
REMARK   30  A    between atoms: _67  and  _68
REMARK   31  A    between atoms: _73  and  _75
REMARK   32  A    between atoms: _75  and  _76
REMARK   33  A    between atoms: _75  and  _78
REMARK   34  A    between atoms: _78  and  _79
REMARK   35  A    between atoms: _79  and  _80
REMARK   36  A    between atoms: _85  and  _87
REMARK   37  A    between atoms: _87  and  _88
REMARK   38  A    between atoms: _87  and  _90
REMARK   39  A    between atoms: _90  and  _91
REMARK   40  A    between atoms: _93  and  _95
REMARK   41  A    between atoms: _95  and  _96
REMARK   42  A    between atoms: _95  and  _98
REMARK   43  A    between atoms: _101  and  _103
REMARK   44  A    between atoms: _103  and  _104
REMARK   45  A    between atoms: _103  and  _106
REMARK   46  A    between atoms: _108  and  _110
REMARK   47  A    between atoms: _110  and  _111
REMARK   48  A    between atoms: _110  and  _113
REMARK   49  A    between atoms: _113  and  _114
REMARK   50  A    between atoms: _119  and  _121
REMARK   51  A    between atoms: _121  and  _122
REMARK   52  A    between atoms: _125  and  _127
REMARK   53  A    between atoms: _127  and  _128
REMARK   54  A    between atoms: _127  and  _130
REMARK   55  A    between atoms: _130  and  _131
REMARK   56  A    between atoms: _133  and  _135
REMARK   57  A    between atoms: _135  and  _136
REMARK   58  A    between atoms: _139  and  _141
REMARK   59  A    between atoms: _141  and  _142
REMARK   60  A    between atoms: _141  and  _144
REMARK   61  A    between atoms: _144  and  _145
REMARK   62  A    between atoms: _155  and  _157
REMARK   63  A    between atoms: _157  and  _158
REMARK   64  A    between atoms: _157  and  _160
REMARK   65  A    between atoms: _160  and  _161
REMARK   66  A    between atoms: _164  and  _166
REMARK   67  A    between atoms: _166  and  _167
REMARK   68  A    between atoms: _166  and  _169
REMARK   69  A    between atoms: _169  and  _170
REMARK   70  A    between atoms: _175  and  _176
REMARK   71  A    between atoms: _178  and  _180
REMARK   72  A    between atoms: _180  and  _181
REMARK   73  A    between atoms: _180  and  _183
REMARK   74  A    between atoms: _183  and  _184
REMARK   75  A    between atoms: _184  and  _185
REMARK   76  A    between atoms: _185  and  _186
REMARK   77  A    between atoms: _195  and  _197
REMARK   78  A    between atoms: _197  and  _198
REMARK   79  A    between atoms: _197  and  _200
REMARK   80  A    between atoms: _200  and  _201
REMARK   81  A    between atoms: _204  and  _206
REMARK   82  A    between atoms: _206  and  _207
REMARK   83  A    between atoms: _206  and  _209
REMARK   84  A    between atoms: _209  and  _210
REMARK   85  A    between atoms: _210  and  _211
REMARK   86  A    between atoms: _211  and  _212
REMARK   87  A    between atoms: _212  and  _213
REMARK   88  A    between atoms: _217  and  _219
REMARK   89  A    between atoms: _219  and  _220
REMARK   90  A    between atoms: _219  and  _222
REMARK   91  A    between atoms: _222  and  _223
REMARK   92  A    between atoms: _223  and  _224
REMARK   93  A    between atoms: _229  and  _231
REMARK   94  A    between atoms: _231  and  _232
REMARK   95  A    between atoms: _231  and  _234
REMARK   96  A    between atoms: _234  and  _235
REMARK   97  A    between atoms: _235  and  _236
REMARK   98  A    between atoms: _236  and  _237
REMARK   99  A    between atoms: _246  and  _248
REMARK  100  A    between atoms: _248  and  _249
REMARK  101  A    between atoms: _248  and  _251
REMARK  102  A    between atoms: _251  and  _252
REMARK  103  A    between atoms: _252  and  _253
REMARK  104  A    between atoms: _258  and  _260
REMARK  105  A    between atoms: _260  and  _261
REMARK  106  A    between atoms: _260  and  _263
REMARK  107  A    between atoms: _263  and  _264
REMARK  108  A    between atoms: _267  and  _269
REMARK  109  A    between atoms: _269  and  _270
REMARK  110  A    between atoms: _269  and  _272
REMARK  111  A    between atoms: _272  and  _273
REMARK  112  A    between atoms: _273  and  _274
REMARK  113  A    between atoms: _279  and  _281
REMARK  114  A    between atoms: _281  and  _282
REMARK  115  A    between atoms: _281  and  _284
REMARK  116  A    between atoms: _284  and  _285
REMARK  117  A    between atoms: _288  and  _290
REMARK  118  A    between atoms: _290  and  _291
REMARK  119  A    between atoms: _290  and  _293
REMARK  120  A    between atoms: _293  and  _294
REMARK  121  A    between atoms: _300  and  _302
REMARK  122  A    between atoms: _302  and  _303
REMARK  123  A    between atoms: _302  and  _305
REMARK  124  A    between atoms: _305  and  _306
REMARK  125  A    between atoms: _309  and  _311
REMARK  126  A    between atoms: _311  and  _312
REMARK  127  A    between atoms: _311  and  _314
REMARK  128  A    between atoms: _317  and  _319
REMARK  129  A    between atoms: _319  and  _320
REMARK  130  A    between atoms: _319  and  _322
REMARK  131  A    between atoms: _322  and  _323
REMARK  132  A    between atoms: _328  and  _330
REMARK  133  A    between atoms: _341  and  _344
REMARK  134  A    between atoms: _344  and  _345
REMARK  135  A    between atoms: _345  and  _346
REMARK  136  A    between atoms: _351  and  _354
REMARK  137  A    between atoms: _354  and  _355
REMARK  138  A    between atoms: _365  and  _366
REMARK  139  A    between atoms: _374  and  _376
REMARK  140  A    between atoms: _376  and  _377
REMARK  141  A    between atoms: _376  and  _379
REMARK  142  A    between atoms: _379  and  _380
REMARK  143  A    between atoms: _383  and  _385
REMARK  144  A    between atoms: _385  and  _386
REMARK  145  A    between atoms: _385  and  _388
REMARK  146  A    between atoms: _388  and  _389
REMARK  147  A    between atoms: _394  and  _395
REMARK  148  A    between atoms: _397  and  _399
REMARK  149  A    between atoms: _399  and  _400
REMARK  150  A    between atoms: _399  and  _402
REMARK  151  A    between atoms: _402  and  _403
REMARK  152  A    between atoms: _409  and  _411
REMARK  153  A    between atoms: _411  and  _412
REMARK  154  A    between atoms: _411  and  _414
REMARK  155  A    between atoms: _414  and  _415
REMARK  156  A    between atoms: _420  and  _421
REMARK  157  A    between atoms: _423  and  _425
REMARK  158  A    between atoms: _425  and  _426
REMARK  159  A    between atoms: _425  and  _428
REMARK  160  A    between atoms: _428  and  _429
REMARK  161  A    between atoms: _429  and  _430
REMARK  162  A    between atoms: _430  and  _431
REMARK  163  A    between atoms: _440  and  _442
REMARK  164  A    between atoms: _442  and  _443
REMARK  165  A    between atoms: _442  and  _445
REMARK  166  A    between atoms: _445  and  _446
REMARK  167  A    between atoms: _449  and  _451
REMARK  168  A    between atoms: _451  and  _452
REMARK  169  A    between atoms: _454  and  _456
REMARK  170  A    between atoms: _456  and  _457
REMARK  171  A    between atoms: _456  and  _459
REMARK  172  A    between atoms: _459  and  _460
REMARK  173  A    between atoms: _466  and  _467
REMARK  174  A    between atoms: _472  and  _474
REMARK  175  A    between atoms: _474  and  _475
REMARK  176  A    between atoms: _477  and  _479
REMARK  177  A    between atoms: _479  and  _480
REMARK  178  A    between atoms: _479  and  _482
REMARK  179  A    between atoms: _482  and  _483
REMARK  180  A    between atoms: _489  and  _491
REMARK  181  A    between atoms: _491  and  _492
REMARK  182  A    between atoms: _491  and  _494
REMARK  183  A    between atoms: _494  and  _495
REMARK  184  A    between atoms: _500  and  _502
REMARK  185  A    between atoms: _502  and  _503
REMARK  186  A    between atoms: _502  and  _505
REMARK  187  A    between atoms: _505  and  _506
REMARK  188  A    between atoms: _506  and  _507
REMARK  189  A    between atoms: _507  and  _508
REMARK  190  A    between atoms: _508  and  ZN_790
REMARK  191  A    between atoms: _510  and  _512
REMARK  192  A    between atoms: _512  and  _513
REMARK  193  A    between atoms: _516  and  _518
REMARK  194  A    between atoms: _518  and  _519
REMARK  195  A    between atoms: _521  and  _523
REMARK  196  A    between atoms: _523  and  _524
REMARK  197  A    between atoms: _523  and  _526
REMARK  198  A    between atoms: _526  and  _527
REMARK  199  A    between atoms: _530  and  _532
REMARK  200  A    between atoms: _532  and  _533
REMARK  201  A    between atoms: _532  and  _535
REMARK  202  A    between atoms: _538  and  _540
REMARK  203  A    between atoms: _540  and  _541
REMARK  204  A    between atoms: _540  and  _543
REMARK  205  A    between atoms: _543  and  _544
REMARK  206  A    between atoms: _546  and  _548
REMARK  207  A    between atoms: _548  and  _549
REMARK  208  A    between atoms: _548  and  _551
REMARK  209  A    between atoms: _551  and  _552
REMARK  210  A    between atoms: _555  and  _557
REMARK  211  A    between atoms: _557  and  _558
REMARK  212  A    between atoms: _557  and  _560
REMARK  213  A    between atoms: _560  and  _561
REMARK  214  A    between atoms: _563  and  _565
REMARK  215  A    between atoms: _565  and  _566
REMARK  216  A    between atoms: _565  and  _568
REMARK  217  A    between atoms: _568  and  _569
REMARK  218  A    between atoms: _572  and  _574
REMARK  219  A    between atoms: _574  and  _575
REMARK  220  A    between atoms: _574  and  _577
REMARK  221  A    between atoms: _577  and  _578
REMARK  222  A    between atoms: _578  and  _579
REMARK  223  A    between atoms: _579  and  _580
REMARK  224  A    between atoms: _580  and  _581
REMARK  225  A    between atoms: _585  and  _587
REMARK  226  A    between atoms: _587  and  _588
REMARK  227  A    between atoms: _587  and  _590
REMARK  228  A    between atoms: _590  and  _591
REMARK  229  A    between atoms: _597  and  _599
REMARK  230  A    between atoms: _599  and  _600
REMARK  231  A    between atoms: _599  and  _602
REMARK  232  A    between atoms: _602  and  _603
REMARK  233  A    between atoms: _609  and  _611
REMARK  234  A    between atoms: _611  and  _612
REMARK  235  A    between atoms: _615  and  _617
REMARK  236  A    between atoms: _617  and  _618
REMARK  237  A    between atoms: _617  and  _620
REMARK  238  A    between atoms: _620  and  _621
REMARK  239  A    between atoms: _621  and  _622
REMARK  240  A    between atoms: _624  and  _626
REMARK  241  A    between atoms: _626  and  _627
REMARK  242  A    between atoms: _626  and  _629
REMARK  243  A    between atoms: _629  and  _630
REMARK  244  A    between atoms: _630  and  _631
REMARK  245  A    between atoms: _631  and  _632
REMARK  246  A    between atoms: _632  and  _633
REMARK  247  A    between atoms: _637  and  _639
REMARK  248  A    between atoms: _639  and  _640
REMARK  249  A    between atoms: _639  and  _642
REMARK  250  A    between atoms: _642  and  _643
REMARK  251  A    between atoms: _648  and  _649
REMARK  252  A    between atoms: _651  and  _653
REMARK  253  A    between atoms: _653  and  _654
REMARK  254  A    between atoms: _653  and  _656
REMARK  255  A    between atoms: _656  and  _657
REMARK  256  A    between atoms: _662  and  _664
REMARK  257  A    between atoms: _664  and  _665
REMARK  258  A    between atoms: _664  and  _667
REMARK  259  A    between atoms: _667  and  _668
REMARK  260  A    between atoms: _671  and  _673
REMARK  261  A    between atoms: _673  and  _674
REMARK  262  A    between atoms: _677  and  _679
REMARK  263  A    between atoms: _679  and  _680
REMARK  264  A    between atoms: _679  and  _682
REMARK  265  A    between atoms: _682  and  _683
REMARK  266  A    between atoms: _686  and  _688
REMARK  267  A    between atoms: _688  and  _689
REMARK  268  A    between atoms: _688  and  _691
REMARK  269  A    between atoms: _694  and  _696
REMARK  270  A    between atoms: _696  and  _697
REMARK  271  A    between atoms: _696  and  _699
REMARK  272  A    between atoms: _699  and  _700
REMARK  273  A    between atoms: _700  and  _701
REMARK  274  A    between atoms: _704  and  _706
REMARK  275  A    between atoms: _706  and  _707
REMARK  276  A    between atoms: _706  and  _709
REMARK  277  A    between atoms: _709  and  _710
REMARK  278  A    between atoms: _715  and  _716
REMARK  279  A    between atoms: _718  and  _720
REMARK  280  A    between atoms: _720  and  _721
REMARK  281  A    between atoms: _720  and  _723
REMARK  282  A    between atoms: _723  and  _724
REMARK  283  A    between atoms: _724  and  _725
REMARK  284  A    between atoms: _725  and  _726
REMARK  285  A    between atoms: _735  and  _737
REMARK  286  A    between atoms: _737  and  _738
REMARK  287  A    between atoms: _737  and  _740
REMARK  288  A    between atoms: _740  and  _741
REMARK  289  A    between atoms: _746  and  _747
REMARK  290  A    between atoms: _749  and  _751
REMARK  291  A    between atoms: _751  and  _752
REMARK  292  A    between atoms: _751  and  _754
REMARK  293  A    between atoms: _754  and  _755
REMARK  294  A    between atoms: _758  and  _760
REMARK  295  A    between atoms: _760  and  _761
REMARK  296  A    between atoms: _760  and  _763
REMARK  297  A    between atoms: _763  and  _764
REMARK  298  A    between atoms: _766  and  _768
REMARK  299  A    between atoms: _768  and  _769
REMARK  300  A    between atoms: _768  and  _771
REMARK  301  A    between atoms: _771  and  _772
REMARK  302  A    between atoms: _778  and  _780
REMARK  303  A    between atoms: _780  and  _781
REMARK  304  A    between atoms: _780  and  _783
REMARK  305  A    between atoms: _783  and  _784
REMARK  306  A    between atoms: _784  and  _785
REMARK                            x       y       z     vdW  Elec       q    Type
REMARK                         _______ _______ _______ _____ _____    ______ ____
ROOT
ATOM      1  O   HOH     1      22.862  -3.822   3.037  0.00  0.00    +0.000 OA
ENDROOT
TORSDOF 0
REMARK  Name = ../refined-set-2016/4ca7/4ca7_pocket.pdb
REMARK  306 active torsions:
REMARK  status: ('A' for Active; 'I' for Inactive)
REMARK    1  A    between atoms: _1  and  _3
REMARK    2  A    between atoms: _3  and  _4
REMARK    3  A    between atoms: _3  and  _6
REMARK    4  A    between atoms: _6  and  _7
REMARK    5  A    between atoms: _7  and  _8
REMARK    6  A    between atoms: _8  and  _9
REMARK    7  A    between atoms: _9  and  _10
REMARK    8  A    between atoms: _14  and  _16
REMARK    9  A    between atoms: _16  and  _17
REMARK   10  A    between atoms: _16  and  _19
REMARK   11  A    between atoms: _19  and  _20
REMARK   12  A    between atoms: _20  and  _21
REMARK   13  A    between atoms: _24  and  _26
REMARK   14  A    between atoms: _26  and  _27
REMARK   15  A    between atoms: _26  and  _29
REMARK   16  A    between atoms: _29  and  _30
REMARK   17  A    between atoms: _30  and  _31
REMARK   18  A    between atoms: _34  and  _36
REMARK   19  A    between atoms: _36  and  _37
REMARK   20  A    between atoms: _36  and  _39
REMARK   21  A    between atoms: _39  and  _40
REMARK   22  A    between atoms: _45  and  _47
REMARK   23  A    between atoms: _47  and  _48
REMARK   24  A    between atoms: _47  and  _50
REMARK   25  A    between atoms: _50  and  _51
REMARK   26  A    between atoms: _61  and  _63
REMARK   27  A    between atoms: _63  and  _64
REMARK   28  A    between atoms: _63  and  _66
REMARK   29  A    between atoms: _66  and  _67
REMARK   30  A    between atoms: _67  and  _68
REMARK   31  A    between atoms: _73  and  _75
REMARK   32  A    between atoms: _75  and  _76
REMARK   33  A    between atoms: _75  and  _78
REMARK   34  A    between atoms: _78  and  _79
REMARK   35  A    between atoms: _79  and  _80
REMARK   36  A    between atoms: _85  and  _87
REMARK   37  A    between atoms: _87  and  _88
REMARK   38  A    between atoms: _87  and  _90
REMARK   39  A    between atoms: _90  and  _91
REMARK   40  A    between atoms: _93  and  _95
REMARK   41  A    between atoms: _95  and  _96
REMARK   42  A    between atoms: _95  and  _98
REMARK   43  A    between atoms: _101  and  _103
REMARK   44  A    between atoms: _103  and  _104
REMARK   45  A    between atoms: _103  and  _106
REMARK   46  A    between atoms: _108  and  _110
REMARK   47  A    between atoms: _110  and  _111
REMARK   48  A    between atoms: _110  and  _113
REMARK   49  A    between atoms: _113  and  _114
REMARK   50  A    between atoms: _119  and  _121
REMARK   51  A    between atoms: _121  and  _122
REMARK   52  A    between atoms: _125  and  _127
REMARK   53  A    between atoms: _127  and  _128
REMARK   54  A    between atoms: _127  and  _130
REMARK   55  A    between atoms: _130  and  _131
REMARK   56  A    between atoms: _133  and  _135
REMARK   57  A    between atoms: _135  and  _136
REMARK   58  A    between atoms: _139  and  _141
REMARK   59  A    between atoms: _141  and  _142
REMARK   60  A    between atoms: _141  and  _144
REMARK   61  A    between atoms: _144  and  _145
REMARK   62  A    between atoms: _155  and  _157
REMARK   63  A    between atoms: _157  and  _158
REMARK   64  A    between atoms: _157  and  _160
REMARK   65  A    between atoms: _160  and  _161
REMARK   66  A    between atoms: _164  and  _166
REMARK   67  A    between atoms: _166  and  _167
REMARK   68  A    between atoms: _166  and  _169
REMARK   69  A    between atoms: _169  and  _170
REMARK   70  A    between atoms: _175  and  _176
REMARK   71  A    between atoms: _178  and  _180
REMARK   72  A    between atoms: _180  and  _181
REMARK   73  A    between atoms: _180  and  _183
REMARK   74  A    between atoms: _183  and  _184
REMARK   75  A    between atoms: _184  and  _185
REMARK   76  A    between atoms: _185  and  _186
REMARK   77  A    between atoms: _195  and  _197
REMARK   78  A    between atoms: _197  and  _198
REMARK   79  A    between atoms: _197  and  _200
REMARK   80  A    between atoms: _200  and  _201
REMARK   81  A    between atoms: _204  and  _206
REMARK   82  A    between atoms: _206  and  _207
REMARK   83  A    between atoms: _206  and  _209
REMARK   84  A    between atoms: _209  and  _210
REMARK   85  A    between atoms: _210  and  _211
REMARK   86  A    between atoms: _211  and  _212
REMARK   87  A    between atoms: _212  and  _213
REMARK   88  A    between atoms: _217  and  _219
REMARK   89  A    between atoms: _219  and  _220
REMARK   90  A    between atoms: _219  and  _222
REMARK   91  A    between atoms: _222  and  _223
REMARK   92  A    between atoms: _223  and  _224
REMARK   93  A    between atoms: _229  and  _231
REMARK   94  A    between atoms: _231  and  _232
REMARK   95  A    between atoms: _231  and  _234
REMARK   96  A    between atoms: _234  and  _235
REMARK   97  A    between atoms: _235  and  _236
REMARK   98  A    between atoms: _236  and  _237
REMARK   99  A    between atoms: _246  and  _248
REMARK  100  A    between atoms: _248  and  _249
REMARK  101  A    between atoms: _248  and  _251
REMARK  102  A    between atoms: _251  and  _252
REMARK  103  A    between atoms: _252  and  _253
REMARK  104  A    between atoms: _258  and  _260
REMARK  105  A    between atoms: _260  and  _261
REMARK  106  A    between atoms: _260  and  _263
REMARK  107  A    between atoms: _263  and  _264
REMARK  108  A    between atoms: _267  and  _269
REMARK  109  A    between atoms: _269  and  _270
REMARK  110  A    between atoms: _269  and  _272
REMARK  111  A    between atoms: _272  and  _273
REMARK  112  A    between atoms: _273  and  _274
REMARK  113  A    between atoms: _279  and  _281
REMARK  114  A    between atoms: _281  and  _282
REMARK  115  A    between atoms: _281  and  _284
REMARK  116  A    between atoms: _284  and  _285
REMARK  117  A    between atoms: _288  and  _290
REMARK  118  A    between atoms: _290  and  _291
REMARK  119  A    between atoms: _290  and  _293
REMARK  120  A    between atoms: _293  and  _294
REMARK  121  A    between atoms: _300  and  _302
REMARK  122  A    between atoms: _302  and  _303
REMARK  123  A    between atoms: _302  and  _305
REMARK  124  A    between atoms: _305  and  _306
REMARK  125  A    between atoms: _309  and  _311
REMARK  126  A    between atoms: _311  and  _312
REMARK  127  A    between atoms: _311  and  _314
REMARK  128  A    between atoms: _317  and  _319
REMARK  129  A    between atoms: _319  and  _320
REMARK  130  A    between atoms: _319  and  _322
REMARK  131  A    between atoms: _322  and  _323
REMARK  132  A    between atoms: _328  and  _330
REMARK  133  A    between atoms: _341  and  _344
REMARK  134  A    between atoms: _344  and  _345
REMARK  135  A    between atoms: _345  and  _346
REMARK  136  A    between atoms: _351  and  _354
REMARK  137  A    between atoms: _354  and  _355
REMARK  138  A    between atoms: _365  and  _366
REMARK  139  A    between atoms: _374  and  _376
REMARK  140  A    between atoms: _376  and  _377
REMARK  141  A    between atoms: _376  and  _379
REMARK  142  A    between atoms: _379  and  _380
REMARK  143  A    between atoms: _383  and  _385
REMARK  144  A    between atoms: _385  and  _386
REMARK  145  A    between atoms: _385  and  _388
REMARK  146  A    between atoms: _388  and  _389
REMARK  147  A    between atoms: _394  and  _395
REMARK  148  A    between atoms: _397  and  _399
REMARK  149  A    between atoms: _399  and  _400
REMARK  150  A    between atoms: _399  and  _402
REMARK  151  A    between atoms: _402  and  _403
REMARK  152  A    between atoms: _409  and  _411
REMARK  153  A    between atoms: _411  and  _412
REMARK  154  A    between atoms: _411  and  _414
REMARK  155  A    between atoms: _414  and  _415
REMARK  156  A    between atoms: _420  and  _421
REMARK  157  A    between atoms: _423  and  _425
REMARK  158  A    between atoms: _425  and  _426
REMARK  159  A    between atoms: _425  and  _428
REMARK  160  A    between atoms: _428  and  _429
REMARK  161  A    between atoms: _429  and  _430
REMARK  162  A    between atoms: _430  and  _431
REMARK  163  A    between atoms: _440  and  _442
REMARK  164  A    between atoms: _442  and  _443
REMARK  165  A    between atoms: _442  and  _445
REMARK  166  A    between atoms: _445  and  _446
REMARK  167  A    between atoms: _449  and  _451
REMARK  168  A    between atoms: _451  and  _452
REMARK  169  A    between atoms: _454  and  _456
REMARK  170  A    between atoms: _456  and  _457
REMARK  171  A    between atoms: _456  and  _459
REMARK  172  A    between atoms: _459  and  _460
REMARK  173  A    between atoms: _466  and  _467
REMARK  174  A    between atoms: _472  and  _474
REMARK  175  A    between atoms: _474  and  _475
REMARK  176  A    between atoms: _477  and  _479
REMARK  177  A    between atoms: _479  and  _480
REMARK  178  A    between atoms: _479  and  _482
REMARK  179  A    between atoms: _482  and  _483
REMARK  180  A    between atoms: _489  and  _491
REMARK  181  A    between atoms: _491  and  _492
REMARK  182  A    between atoms: _491  and  _494
REMARK  183  A    between atoms: _494  and  _495
REMARK  184  A    between atoms: _500  and  _502
REMARK  185  A    between atoms: _502  and  _503
REMARK  186  A    between atoms: _502  and  _505
REMARK  187  A    between atoms: _505  and  _506
REMARK  188  A    between atoms: _506  and  _507
REMARK  189  A    between atoms: _507  and  _508
REMARK  190  A    between atoms: _508  and  ZN_790
REMARK  191  A    between atoms: _510  and  _512
REMARK  192  A    between atoms: _512  and  _513
REMARK  193  A    between atoms: _516  and  _518
REMARK  194  A    between atoms: _518  and  _519
REMARK  195  A    between atoms: _521  and  _523
REMARK  196  A    between atoms: _523  and  _524
REMARK  197  A    between atoms: _523  and  _526
REMARK  198  A    between atoms: _526  and  _527
REMARK  199  A    between atoms: _530  and  _532
REMARK  200  A    between atoms: _532  and  _533
REMARK  201  A    between atoms: _532  and  _535
REMARK  202  A    between atoms: _538  and  _540
REMARK  203  A    between atoms: _540  and  _541
REMARK  204  A    between atoms: _540  and  _543
REMARK  205  A    between atoms: _543  and  _544
REMARK  206  A    between atoms: _546  and  _548
REMARK  207  A    between atoms: _548  and  _549
REMARK  208  A    between atoms: _548  and  _551
REMARK  209  A    between atoms: _551  and  _552
REMARK  210  A    between atoms: _555  and  _557
REMARK  211  A    between atoms: _557  and  _558
REMARK  212  A    between atoms: _557  and  _560
REMARK  213  A    between atoms: _560  and  _561
REMARK  214  A    between atoms: _563  and  _565
REMARK  215  A    between atoms: _565  and  _566
REMARK  216  A    between atoms: _565  and  _568
REMARK  217  A    between atoms: _568  and  _569
REMARK  218  A    between atoms: _572  and  _574
REMARK  219  A    between atoms: _574  and  _575
REMARK  220  A    between atoms: _574  and  _577
REMARK  221  A    between atoms: _577  and  _578
REMARK  222  A    between atoms: _578  and  _579
REMARK  223  A    between atoms: _579  and  _580
REMARK  224  A    between atoms: _580  and  _581
REMARK  225  A    between atoms: _585  and  _587
REMARK  226  A    between atoms: _587  and  _588
REMARK  227  A    between atoms: _587  and  _590
REMARK  228  A    between atoms: _590  and  _591
REMARK  229  A    between atoms: _597  and  _599
REMARK  230  A    between atoms: _599  and  _600
REMARK  231  A    between atoms: _599  and  _602
REMARK  232  A    between atoms: _602  and  _603
REMARK  233  A    between atoms: _609  and  _611
REMARK  234  A    between atoms: _611  and  _612
REMARK  235  A    between atoms: _615  and  _617
REMARK  236  A    between atoms: _617  and  _618
REMARK  237  A    between atoms: _617  and  _620
REMARK  238  A    between atoms: _620  and  _621
REMARK  239  A    between atoms: _621  and  _622
REMARK  240  A    between atoms: _624  and  _626
REMARK  241  A    between atoms: _626  and  _627
REMARK  242  A    between atoms: _626  and  _629
REMARK  243  A    between atoms: _629  and  _630
REMARK  244  A    between atoms: _630  and  _631
REMARK  245  A    between atoms: _631  and  _632
REMARK  246  A    between atoms: _632  and  _633
REMARK  247  A    between atoms: _637  and  _639
REMARK  248  A    between atoms: _639  and  _640
REMARK  249  A    between atoms: _639  and  _642
REMARK  250  A    between atoms: _642  and  _643
REMARK  251  A    between atoms: _648  and  _649
REMARK  252  A    between atoms: _651  and  _653
REMARK  253  A    between atoms: _653  and  _654
REMARK  254  A    between atoms: _653  and  _656
REMARK  255  A    between atoms: _656  and  _657
REMARK  256  A    between atoms: _662  and  _664
REMARK  257  A    between atoms: _664  and  _665
REMARK  258  A    between atoms: _664  and  _667
REMARK  259  A    between atoms: _667  and  _668
REMARK  260  A    between atoms: _671  and  _673
REMARK  261  A    between atoms: _673  and  _674
REMARK  262  A    between atoms: _677  and  _679
REMARK  263  A    between atoms: _679  and  _680
REMARK  264  A    between atoms: _679  and  _682
REMARK  265  A    between atoms: _682  and  _683
REMARK  266  A    between atoms: _686  and  _688
REMARK  267  A    between atoms: _688  and  _689
REMARK  268  A    between atoms: _688  and  _691
REMARK  269  A    between atoms: _694  and  _696
REMARK  270  A    between atoms: _696  and  _697
REMARK  271  A    between atoms: _696  and  _699
REMARK  272  A    between atoms: _699  and  _700
REMARK  273  A    between atoms: _700  and  _701
REMARK  274  A    between atoms: _704  and  _706
REMARK  275  A    between atoms: _706  and  _707
REMARK  276  A    between atoms: _706  and  _709
REMARK  277  A    between atoms: _709  and  _710
REMARK  278  A    between atoms: _715  and  _716
REMARK  279  A    between atoms: _718  and  _720
REMARK  280  A    between atoms: _720  and  _721
REMARK  281  A    between atoms: _720  and  _723
REMARK  282  A    between atoms: _723  and  _724
REMARK  283  A    between atoms: _724  and  _725
REMARK  284  A    between atoms: _725  and  _726
REMARK  285  A    between atoms: _735  and  _737
REMARK  286  A    between atoms: _737  and  _738
REMARK  287  A    between atoms: _737  and  _740
REMARK  288  A    between atoms: _740  and  _741
REMARK  289  A    between atoms: _746  and  _747
REMARK  290  A    between atoms: _749  and  _751
REMARK  291  A    between atoms: _751  and  _752
REMARK  292  A    between atoms: _751  and  _754
REMARK  293  A    between atoms: _754  and  _755
REMARK  294  A    between atoms: _758  and  _760
REMARK  295  A    between atoms: _760  and  _761
REMARK  296  A    between atoms: _760  and  _763
REMARK  297  A    between atoms: _763  and  _764
REMARK  298  A    between atoms: _766  and  _768
REMARK  299  A    between atoms: _768  and  _769
REMARK  300  A    between atoms: _768  and  _771
REMARK  301  A    between atoms: _771  and  _772
REMARK  302  A    between atoms: _778  and  _780
REMARK  303  A    between atoms: _780  and  _781
REMARK  304  A    between atoms: _780  and  _783
REMARK  305  A    between atoms: _783  and  _784
REMARK  306  A    between atoms: _784  and  _785
REMARK                            x       y       z     vdW  Elec       q    Type
REMARK                         _______ _______ _______ _____ _____    ______ ____
ROOT
ATOM      1  O   HOH     1      22.482   1.445   4.622  0.00  0.00    +0.000 OA
ENDROOT
TORSDOF 0
REMARK  Name = ../refined-set-2016/4ca7/4ca7_pocket.pdb
REMARK  306 active torsions:
REMARK  status: ('A' for Active; 'I' for Inactive)
REMARK    1  A    between atoms: _1  and  _3
REMARK    2  A    between atoms: _3  and  _4
REMARK    3  A    between atoms: _3  and  _6
REMARK    4  A    between atoms: _6  and  _7
REMARK    5  A    between atoms: _7  and  _8
REMARK    6  A    between atoms: _8  and  _9
REMARK    7  A    between atoms: _9  and  _10
REMARK    8  A    between atoms: _14  and  _16
REMARK    9  A    between atoms: _16  and  _17
REMARK   10  A    between atoms: _16  and  _19
REMARK   11  A    between atoms: _19  and  _20
REMARK   12  A    between atoms: _20  and  _21
REMARK   13  A    between atoms: _24  and  _26
REMARK   14  A    between atoms: _26  and  _27
REMARK   15  A    between atoms: _26  and  _29
REMARK   16  A    between atoms: _29  and  _30
REMARK   17  A    between atoms: _30  and  _31
REMARK   18  A    between atoms: _34  and  _36
REMARK   19  A    between atoms: _36  and  _37
REMARK   20  A    between atoms: _36  and  _39
REMARK   21  A    between atoms: _39  and  _40
REMARK   22  A    between atoms: _45  and  _47
REMARK   23  A    between atoms: _47  and  _48
REMARK   24  A    between atoms: _47  and  _50
REMARK   25  A    between atoms: _50  and  _51
REMARK   26  A    between atoms: _61  and  _63
REMARK   27  A    between atoms: _63  and  _64
REMARK   28  A    between atoms: _63  and  _66
REMARK   29  A    between atoms: _66  and  _67
REMARK   30  A    between atoms: _67  and  _68
REMARK   31  A    between atoms: _73  and  _75
REMARK   32  A    between atoms: _75  and  _76
REMARK   33  A    between atoms: _75  and  _78
REMARK   34  A    between atoms: _78  and  _79
REMARK   35  A    between atoms: _79  and  _80
REMARK   36  A    between atoms: _85  and  _87
REMARK   37  A    between atoms: _87  and  _88
REMARK   38  A    between atoms: _87  and  _90
REMARK   39  A    between atoms: _90  and  _91
REMARK   40  A    between atoms: _93  and  _95
REMARK   41  A    between atoms: _95  and  _96
REMARK   42  A    between atoms: _95  and  _98
REMARK   43  A    between atoms: _101  and  _103
REMARK   44  A    between atoms: _103  and  _104
REMARK   45  A    between atoms: _103  and  _106
REMARK   46  A    between atoms: _108  and  _110
REMARK   47  A    between atoms: _110  and  _111
REMARK   48  A    between atoms: _110  and  _113
REMARK   49  A    between atoms: _113  and  _114
REMARK   50  A    between atoms: _119  and  _121
REMARK   51  A    between atoms: _121  and  _122
REMARK   52  A    between atoms: _125  and  _127
REMARK   53  A    between atoms: _127  and  _128
REMARK   54  A    between atoms: _127  and  _130
REMARK   55  A    between atoms: _130  and  _131
REMARK   56  A    between atoms: _133  and  _135
REMARK   57  A    between atoms: _135  and  _136
REMARK   58  A    between atoms: _139  and  _141
REMARK   59  A    between atoms: _141  and  _142
REMARK   60  A    between atoms: _141  and  _144
REMARK   61  A    between atoms: _144  and  _145
REMARK   62  A    between atoms: _155  and  _157
REMARK   63  A    between atoms: _157  and  _158
REMARK   64  A    between atoms: _157  and  _160
REMARK   65  A    between atoms: _160  and  _161
REMARK   66  A    between atoms: _164  and  _166
REMARK   67  A    between atoms: _166  and  _167
REMARK   68  A    between atoms: _166  and  _169
REMARK   69  A    between atoms: _169  and  _170
REMARK   70  A    between atoms: _175  and  _176
REMARK   71  A    between atoms: _178  and  _180
REMARK   72  A    between atoms: _180  and  _181
REMARK   73  A    between atoms: _180  and  _183
REMARK   74  A    between atoms: _183  and  _184
REMARK   75  A    between atoms: _184  and  _185
REMARK   76  A    between atoms: _185  and  _186
REMARK   77  A    between atoms: _195  and  _197
REMARK   78  A    between atoms: _197  and  _198
REMARK   79  A    between atoms: _197  and  _200
REMARK   80  A    between atoms: _200  and  _201
REMARK   81  A    between atoms: _204  and  _206
REMARK   82  A    between atoms: _206  and  _207
REMARK   83  A    between atoms: _206  and  _209
REMARK   84  A    between atoms: _209  and  _210
REMARK   85  A    between atoms: _210  and  _211
REMARK   86  A    between atoms: _211  and  _212
REMARK   87  A    between atoms: _212  and  _213
REMARK   88  A    between atoms: _217  and  _219
REMARK   89  A    between atoms: _219  and  _220
REMARK   90  A    between atoms: _219  and  _222
REMARK   91  A    between atoms: _222  and  _223
REMARK   92  A    between atoms: _223  and  _224
REMARK   93  A    between atoms: _229  and  _231
REMARK   94  A    between atoms: _231  and  _232
REMARK   95  A    between atoms: _231  and  _234
REMARK   96  A    between atoms: _234  and  _235
REMARK   97  A    between atoms: _235  and  _236
REMARK   98  A    between atoms: _236  and  _237
REMARK   99  A    between atoms: _246  and  _248
REMARK  100  A    between atoms: _248  and  _249
REMARK  101  A    between atoms: _248  and  _251
REMARK  102  A    between atoms: _251  and  _252
REMARK  103  A    between atoms: _252  and  _253
REMARK  104  A    between atoms: _258  and  _260
REMARK  105  A    between atoms: _260  and  _261
REMARK  106  A    between atoms: _260  and  _263
REMARK  107  A    between atoms: _263  and  _264
REMARK  108  A    between atoms: _267  and  _269
REMARK  109  A    between atoms: _269  and  _270
REMARK  110  A    between atoms: _269  and  _272
REMARK  111  A    between atoms: _272  and  _273
REMARK  112  A    between atoms: _273  and  _274
REMARK  113  A    between atoms: _279  and  _281
REMARK  114  A    between atoms: _281  and  _282
REMARK  115  A    between atoms: _281  and  _284
REMARK  116  A    between atoms: _284  and  _285
REMARK  117  A    between atoms: _288  and  _290
REMARK  118  A    between atoms: _290  and  _291
REMARK  119  A    between atoms: _290  and  _293
REMARK  120  A    between atoms: _293  and  _294
REMARK  121  A    between atoms: _300  and  _302
REMARK  122  A    between atoms: _302  and  _303
REMARK  123  A    between atoms: _302  and  _305
REMARK  124  A    between atoms: _305  and  _306
REMARK  125  A    between atoms: _309  and  _311
REMARK  126  A    between atoms: _311  and  _312
REMARK  127  A    between atoms: _311  and  _314
REMARK  128  A    between atoms: _317  and  _319
REMARK  129  A    between atoms: _319  and  _320
REMARK  130  A    between atoms: _319  and  _322
REMARK  131  A    between atoms: _322  and  _323
REMARK  132  A    between atoms: _328  and  _330
REMARK  133  A    between atoms: _341  and  _344
REMARK  134  A    between atoms: _344  and  _345
REMARK  135  A    between atoms: _345  and  _346
REMARK  136  A    between atoms: _351  and  _354
REMARK  137  A    between atoms: _354  and  _355
REMARK  138  A    between atoms: _365  and  _366
REMARK  139  A    between atoms: _374  and  _376
REMARK  140  A    between atoms: _376  and  _377
REMARK  141  A    between atoms: _376  and  _379
REMARK  142  A    between atoms: _379  and  _380
REMARK  143  A    between atoms: _383  and  _385
REMARK  144  A    between atoms: _385  and  _386
REMARK  145  A    between atoms: _385  and  _388
REMARK  146  A    between atoms: _388  and  _389
REMARK  147  A    between atoms: _394  and  _395
REMARK  148  A    between atoms: _397  and  _399
REMARK  149  A    between atoms: _399  and  _400
REMARK  150  A    between atoms: _399  and  _402
REMARK  151  A    between atoms: _402  and  _403
REMARK  152  A    between atoms: _409  and  _411
REMARK  153  A    between atoms: _411  and  _412
REMARK  154  A    between atoms: _411  and  _414
REMARK  155  A    between atoms: _414  and  _415
REMARK  156  A    between atoms: _420  and  _421
REMARK  157  A    between atoms: _423  and  _425
REMARK  158  A    between atoms: _425  and  _426
REMARK  159  A    between atoms: _425  and  _428
REMARK  160  A    between atoms: _428  and  _429
REMARK  161  A    between atoms: _429  and  _430
REMARK  162  A    between atoms: _430  and  _431
REMARK  163  A    between atoms: _440  and  _442
REMARK  164  A    between atoms: _442  and  _443
REMARK  165  A    between atoms: _442  and  _445
REMARK  166  A    between atoms: _445  and  _446
REMARK  167  A    between atoms: _449  and  _451
REMARK  168  A    between atoms: _451  and  _452
REMARK  169  A    between atoms: _454  and  _456
REMARK  170  A    between atoms: _456  and  _457
REMARK  171  A    between atoms: _456  and  _459
REMARK  172  A    between atoms: _459  and  _460
REMARK  173  A    between atoms: _466  and  _467
REMARK  174  A    between atoms: _472  and  _474
REMARK  175  A    between atoms: _474  and  _475
REMARK  176  A    between atoms: _477  and  _479
REMARK  177  A    between atoms: _479  and  _480
REMARK  178  A    between atoms: _479  and  _482
REMARK  179  A    between atoms: _482  and  _483
REMARK  180  A    between atoms: _489  and  _491
REMARK  181  A    between atoms: _491  and  _492
REMARK  182  A    between atoms: _491  and  _494
REMARK  183  A    between atoms: _494  and  _495
REMARK  184  A    between atoms: _500  and  _502
REMARK  185  A    between atoms: _502  and  _503
REMARK  186  A    between atoms: _502  and  _505
REMARK  187  A    between atoms: _505  and  _506
REMARK  188  A    between atoms: _506  and  _507
REMARK  189  A    between atoms: _507  and  _508
REMARK  190  A    between atoms: _508  and  ZN_790
REMARK  191  A    between atoms: _510  and  _512
REMARK  192  A    between atoms: _512  and  _513
REMARK  193  A    between atoms: _516  and  _518
REMARK  194  A    between atoms: _518  and  _519
REMARK  195  A    between atoms: _521  and  _523
REMARK  196  A    between atoms: _523  and  _524
REMARK  197  A    between atoms: _523  and  _526
REMARK  198  A    between atoms: _526  and  _527
REMARK  199  A    between atoms: _530  and  _532
REMARK  200  A    between atoms: _532  and  _533
REMARK  201  A    between atoms: _532  and  _535
REMARK  202  A    between atoms: _538  and  _540
REMARK  203  A    between atoms: _540  and  _541
REMARK  204  A    between atoms: _540  and  _543
REMARK  205  A    between atoms: _543  and  _544
REMARK  206  A    between atoms: _546  and  _548
REMARK  207  A    between atoms: _548  and  _549
REMARK  208  A    between atoms: _548  and  _551
REMARK  209  A    between atoms: _551  and  _552
REMARK  210  A    between atoms: _555  and  _557
REMARK  211  A    between atoms: _557  and  _558
REMARK  212  A    between atoms: _557  and  _560
REMARK  213  A    between atoms: _560  and  _561
REMARK  214  A    between atoms: _563  and  _565
REMARK  215  A    between atoms: _565  and  _566
REMARK  216  A    between atoms: _565  and  _568
REMARK  217  A    between atoms: _568  and  _569
REMARK  218  A    between atoms: _572  and  _574
REMARK  219  A    between atoms: _574  and  _575
REMARK  220  A    between atoms: _574  and  _577
REMARK  221  A    between atoms: _577  and  _578
REMARK  222  A    between atoms: _578  and  _579
REMARK  223  A    between atoms: _579  and  _580
REMARK  224  A    between atoms: _580  and  _581
REMARK  225  A    between atoms: _585  and  _587
REMARK  226  A    between atoms: _587  and  _588
REMARK  227  A    between atoms: _587  and  _590
REMARK  228  A    between atoms: _590  and  _591
REMARK  229  A    between atoms: _597  and  _599
REMARK  230  A    between atoms: _599  and  _600
REMARK  231  A    between atoms: _599  and  _602
REMARK  232  A    between atoms: _602  and  _603
REMARK  233  A    between atoms: _609  and  _611
REMARK  234  A    between atoms: _611  and  _612
REMARK  235  A    between atoms: _615  and  _617
REMARK  236  A    between atoms: _617  and  _618
REMARK  237  A    between atoms: _617  and  _620
REMARK  238  A    between atoms: _620  and  _621
REMARK  239  A    between atoms: _621  and  _622
REMARK  240  A    between atoms: _624  and  _626
REMARK  241  A    between atoms: _626  and  _627
REMARK  242  A    between atoms: _626  and  _629
REMARK  243  A    between atoms: _629  and  _630
REMARK  244  A    between atoms: _630  and  _631
REMARK  245  A    between atoms: _631  and  _632
REMARK  246  A    between atoms: _632  and  _633
REMARK  247  A    between atoms: _637  and  _639
REMARK  248  A    between atoms: _639  and  _640
REMARK  249  A    between atoms: _639  and  _642
REMARK  250  A    between atoms: _642  and  _643
REMARK  251  A    between atoms: _648  and  _649
REMARK  252  A    between atoms: _651  and  _653
REMARK  253  A    between atoms: _653  and  _654
REMARK  254  A    between atoms: _653  and  _656
REMARK  255  A    between atoms: _656  and  _657
REMARK  256  A    between atoms: _662  and  _664
REMARK  257  A    between atoms: _664  and  _665
REMARK  258  A    between atoms: _664  and  _667
REMARK  259  A    between atoms: _667  and  _668
REMARK  260  A    between atoms: _671  and  _673
REMARK  261  A    between atoms: _673  and  _674
REMARK  262  A    between atoms: _677  and  _679
REMARK  263  A    between atoms: _679  and  _680
REMARK  264  A    between atoms: _679  and  _682
REMARK  265  A    between atoms: _682  and  _683
REMARK  266  A    between atoms: _686  and  _688
REMARK  267  A    between atoms: _688  and  _689
REMARK  268  A    between atoms: _688  and  _691
REMARK  269  A    between atoms: _694  and  _696
REMARK  270  A    between atoms: _696  and  _697
REMARK  271  A    between atoms: _696  and  _699
REMARK  272  A    between atoms: _699  and  _700
REMARK  273  A    between atoms: _700  and  _701
REMARK  274  A    between atoms: _704  and  _706
REMARK  275  A    between atoms: _706  and  _707
REMARK  276  A    between atoms: _706  and  _709
REMARK  277  A    between atoms: _709  and  _710
REMARK  278  A    between atoms: _715  and  _716
REMARK  279  A    between atoms: _718  and  _720
REMARK  280  A    between atoms: _720  and  _721
REMARK  281  A    between atoms: _720  and  _723
REMARK  282  A    between atoms: _723  and  _724
REMARK  283  A    between atoms: _724  and  _725
REMARK  284  A    between atoms: _725  and  _726
REMARK  285  A    between atoms: _735  and  _737
REMARK  286  A    between atoms: _737  and  _738
REMARK  287  A    between atoms: _737  and  _740
REMARK  288  A    between atoms: _740  and  _741
REMARK  289  A    between atoms: _746  and  _747
REMARK  290  A    between atoms: _749  and  _751
REMARK  291  A    between atoms: _751  and  _752
REMARK  292  A    between atoms: _751  and  _754
REMARK  293  A    between atoms: _754  and  _755
REMARK  294  A    between atoms: _758  and  _760
REMARK  295  A    between atoms: _760  and  _761
REMARK  296  A    between atoms: _760  and  _763
REMARK  297  A    between atoms: _763  and  _764
REMARK  298  A    between atoms: _766  and  _768
REMARK  299  A    between atoms: _768  and  _769
REMARK  300  A    between atoms: _768  and  _771
REMARK  301  A    between atoms: _771  and  _772
REMARK  302  A    between atoms: _778  and  _780
REMARK  303  A    between atoms: _780  and  _781
REMARK  304  A    between atoms: _780  and  _783
REMARK  305  A    between atoms: _783  and  _784
REMARK  306  A    between atoms: _784  and  _785
REMARK                            x       y       z     vdW  Elec       q    Type
REMARK                         _______ _______ _______ _____ _____    ______ ____
ROOT
ATOM      1  O   HOH     1      25.733   2.925   5.505  0.00  0.00    +0.000 OA
ENDROOT
TORSDOF 0
REMARK  Name = ../refined-set-2016/4ca7/4ca7_pocket.pdb
REMARK  306 active torsions:
REMARK  status: ('A' for Active; 'I' for Inactive)
REMARK    1  A    between atoms: _1  and  _3
REMARK    2  A    between atoms: _3  and  _4
REMARK    3  A    between atoms: _3  and  _6
REMARK    4  A    between atoms: _6  and  _7
REMARK    5  A    between atoms: _7  and  _8
REMARK    6  A    between atoms: _8  and  _9
REMARK    7  A    between atoms: _9  and  _10
REMARK    8  A    between atoms: _14  and  _16
REMARK    9  A    between atoms: _16  and  _17
REMARK   10  A    between atoms: _16  and  _19
REMARK   11  A    between atoms: _19  and  _20
REMARK   12  A    between atoms: _20  and  _21
REMARK   13  A    between atoms: _24  and  _26
REMARK   14  A    between atoms: _26  and  _27
REMARK   15  A    between atoms: _26  and  _29
REMARK   16  A    between atoms: _29  and  _30
REMARK   17  A    between atoms: _30  and  _31
REMARK   18  A    between atoms: _34  and  _36
REMARK   19  A    between atoms: _36  and  _37
REMARK   20  A    between atoms: _36  and  _39
REMARK   21  A    between atoms: _39  and  _40
REMARK   22  A    between atoms: _45  and  _47
REMARK   23  A    between atoms: _47  and  _48
REMARK   24  A    between atoms: _47  and  _50
REMARK   25  A    between atoms: _50  and  _51
REMARK   26  A    between atoms: _61  and  _63
REMARK   27  A    between atoms: _63  and  _64
REMARK   28  A    between atoms: _63  and  _66
REMARK   29  A    between atoms: _66  and  _67
REMARK   30  A    between atoms: _67  and  _68
REMARK   31  A    between atoms: _73  and  _75
REMARK   32  A    between atoms: _75  and  _76
REMARK   33  A    between atoms: _75  and  _78
REMARK   34  A    between atoms: _78  and  _79
REMARK   35  A    between atoms: _79  and  _80
REMARK   36  A    between atoms: _85  and  _87
REMARK   37  A    between atoms: _87  and  _88
REMARK   38  A    between atoms: _87  and  _90
REMARK   39  A    between atoms: _90  and  _91
REMARK   40  A    between atoms: _93  and  _95
REMARK   41  A    between atoms: _95  and  _96
REMARK   42  A    between atoms: _95  and  _98
REMARK   43  A    between atoms: _101  and  _103
REMARK   44  A    between atoms: _103  and  _104
REMARK   45  A    between atoms: _103  and  _106
REMARK   46  A    between atoms: _108  and  _110
REMARK   47  A    between atoms: _110  and  _111
REMARK   48  A    between atoms: _110  and  _113
REMARK   49  A    between atoms: _113  and  _114
REMARK   50  A    between atoms: _119  and  _121
REMARK   51  A    between atoms: _121  and  _122
REMARK   52  A    between atoms: _125  and  _127
REMARK   53  A    between atoms: _127  and  _128
REMARK   54  A    between atoms: _127  and  _130
REMARK   55  A    between atoms: _130  and  _131
REMARK   56  A    between atoms: _133  and  _135
REMARK   57  A    between atoms: _135  and  _136
REMARK   58  A    between atoms: _139  and  _141
REMARK   59  A    between atoms: _141  and  _142
REMARK   60  A    between atoms: _141  and  _144
REMARK   61  A    between atoms: _144  and  _145
REMARK   62  A    between atoms: _155  and  _157
REMARK   63  A    between atoms: _157  and  _158
REMARK   64  A    between atoms: _157  and  _160
REMARK   65  A    between atoms: _160  and  _161
REMARK   66  A    between atoms: _164  and  _166
REMARK   67  A    between atoms: _166  and  _167
REMARK   68  A    between atoms: _166  and  _169
REMARK   69  A    between atoms: _169  and  _170
REMARK   70  A    between atoms: _175  and  _176
REMARK   71  A    between atoms: _178  and  _180
REMARK   72  A    between atoms: _180  and  _181
REMARK   73  A    between atoms: _180  and  _183
REMARK   74  A    between atoms: _183  and  _184
REMARK   75  A    between atoms: _184  and  _185
REMARK   76  A    between atoms: _185  and  _186
REMARK   77  A    between atoms: _195  and  _197
REMARK   78  A    between atoms: _197  and  _198
REMARK   79  A    between atoms: _197  and  _200
REMARK   80  A    between atoms: _200  and  _201
REMARK   81  A    between atoms: _204  and  _206
REMARK   82  A    between atoms: _206  and  _207
REMARK   83  A    between atoms: _206  and  _209
REMARK   84  A    between atoms: _209  and  _210
REMARK   85  A    between atoms: _210  and  _211
REMARK   86  A    between atoms: _211  and  _212
REMARK   87  A    between atoms: _212  and  _213
REMARK   88  A    between atoms: _217  and  _219
REMARK   89  A    between atoms: _219  and  _220
REMARK   90  A    between atoms: _219  and  _222
REMARK   91  A    between atoms: _222  and  _223
REMARK   92  A    between atoms: _223  and  _224
REMARK   93  A    between atoms: _229  and  _231
REMARK   94  A    between atoms: _231  and  _232
REMARK   95  A    between atoms: _231  and  _234
REMARK   96  A    between atoms: _234  and  _235
REMARK   97  A    between atoms: _235  and  _236
REMARK   98  A    between atoms: _236  and  _237
REMARK   99  A    between atoms: _246  and  _248
REMARK  100  A    between atoms: _248  and  _249
REMARK  101  A    between atoms: _248  and  _251
REMARK  102  A    between atoms: _251  and  _252
REMARK  103  A    between atoms: _252  and  _253
REMARK  104  A    between atoms: _258  and  _260
REMARK  105  A    between atoms: _260  and  _261
REMARK  106  A    between atoms: _260  and  _263
REMARK  107  A    between atoms: _263  and  _264
REMARK  108  A    between atoms: _267  and  _269
REMARK  109  A    between atoms: _269  and  _270
REMARK  110  A    between atoms: _269  and  _272
REMARK  111  A    between atoms: _272  and  _273
REMARK  112  A    between atoms: _273  and  _274
REMARK  113  A    between atoms: _279  and  _281
REMARK  114  A    between atoms: _281  and  _282
REMARK  115  A    between atoms: _281  and  _284
REMARK  116  A    between atoms: _284  and  _285
REMARK  117  A    between atoms: _288  and  _290
REMARK  118  A    between atoms: _290  and  _291
REMARK  119  A    between atoms: _290  and  _293
REMARK  120  A    between atoms: _293  and  _294
REMARK  121  A    between atoms: _300  and  _302
REMARK  122  A    between atoms: _302  and  _303
REMARK  123  A    between atoms: _302  and  _305
REMARK  124  A    between atoms: _305  and  _306
REMARK  125  A    between atoms: _309  and  _311
REMARK  126  A    between atoms: _311  and  _312
REMARK  127  A    between atoms: _311  and  _314
REMARK  128  A    between atoms: _317  and  _319
REMARK  129  A    between atoms: _319  and  _320
REMARK  130  A    between atoms: _319  and  _322
REMARK  131  A    between atoms: _322  and  _323
REMARK  132  A    between atoms: _328  and  _330
REMARK  133  A    between atoms: _341  and  _344
REMARK  134  A    between atoms: _344  and  _345
REMARK  135  A    between atoms: _345  and  _346
REMARK  136  A    between atoms: _351  and  _354
REMARK  137  A    between atoms: _354  and  _355
REMARK  138  A    between atoms: _365  and  _366
REMARK  139  A    between atoms: _374  and  _376
REMARK  140  A    between atoms: _376  and  _377
REMARK  141  A    between atoms: _376  and  _379
REMARK  142  A    between atoms: _379  and  _380
REMARK  143  A    between atoms: _383  and  _385
REMARK  144  A    between atoms: _385  and  _386
REMARK  145  A    between atoms: _385  and  _388
REMARK  146  A    between atoms: _388  and  _389
REMARK  147  A    between atoms: _394  and  _395
REMARK  148  A    between atoms: _397  and  _399
REMARK  149  A    between atoms: _399  and  _400
REMARK  150  A    between atoms: _399  and  _402
REMARK  151  A    between atoms: _402  and  _403
REMARK  152  A    between atoms: _409  and  _411
REMARK  153  A    between atoms: _411  and  _412
REMARK  154  A    between atoms: _411  and  _414
REMARK  155  A    between atoms: _414  and  _415
REMARK  156  A    between atoms: _420  and  _421
REMARK  157  A    between atoms: _423  and  _425
REMARK  158  A    between atoms: _425  and  _426
REMARK  159  A    between atoms: _425  and  _428
REMARK  160  A    between atoms: _428  and  _429
REMARK  161  A    between atoms: _429  and  _430
REMARK  162  A    between atoms: _430  and  _431
REMARK  163  A    between atoms: _440  and  _442
REMARK  164  A    between atoms: _442  and  _443
REMARK  165  A    between atoms: _442  and  _445
REMARK  166  A    between atoms: _445  and  _446
REMARK  167  A    between atoms: _449  and  _451
REMARK  168  A    between atoms: _451  and  _452
REMARK  169  A    between atoms: _454  and  _456
REMARK  170  A    between atoms: _456  and  _457
REMARK  171  A    between atoms: _456  and  _459
REMARK  172  A    between atoms: _459  and  _460
REMARK  173  A    between atoms: _466  and  _467
REMARK  174  A    between atoms: _472  and  _474
REMARK  175  A    between atoms: _474  and  _475
REMARK  176  A    between atoms: _477  and  _479
REMARK  177  A    between atoms: _479  and  _480
REMARK  178  A    between atoms: _479  and  _482
REMARK  179  A    between atoms: _482  and  _483
REMARK  180  A    between atoms: _489  and  _491
REMARK  181  A    between atoms: _491  and  _492
REMARK  182  A    between atoms: _491  and  _494
REMARK  183  A    between atoms: _494  and  _495
REMARK  184  A    between atoms: _500  and  _502
REMARK  185  A    between atoms: _502  and  _503
REMARK  186  A    between atoms: _502  and  _505
REMARK  187  A    between atoms: _505  and  _506
REMARK  188  A    between atoms: _506  and  _507
REMARK  189  A    between atoms: _507  and  _508
REMARK  190  A    between atoms: _508  and  ZN_790
REMARK  191  A    between atoms: _510  and  _512
REMARK  192  A    between atoms: _512  and  _513
REMARK  193  A    between atoms: _516  and  _518
REMARK  194  A    between atoms: _518  and  _519
REMARK  195  A    between atoms: _521  and  _523
REMARK  196  A    between atoms: _523  and  _524
REMARK  197  A    between atoms: _523  and  _526
REMARK  198  A    between atoms: _526  and  _527
REMARK  199  A    between atoms: _530  and  _532
REMARK  200  A    between atoms: _532  and  _533
REMARK  201  A    between atoms: _532  and  _535
REMARK  202  A    between atoms: _538  and  _540
REMARK  203  A    between atoms: _540  and  _541
REMARK  204  A    between atoms: _540  and  _543
REMARK  205  A    between atoms: _543  and  _544
REMARK  206  A    between atoms: _546  and  _548
REMARK  207  A    between atoms: _548  and  _549
REMARK  208  A    between atoms: _548  and  _551
REMARK  209  A    between atoms: _551  and  _552
REMARK  210  A    between atoms: _555  and  _557
REMARK  211  A    between atoms: _557  and  _558
REMARK  212  A    between atoms: _557  and  _560
REMARK  213  A    between atoms: _560  and  _561
REMARK  214  A    between atoms: _563  and  _565
REMARK  215  A    between atoms: _565  and  _566
REMARK  216  A    between atoms: _565  and  _568
REMARK  217  A    between atoms: _568  and  _569
REMARK  218  A    between atoms: _572  and  _574
REMARK  219  A    between atoms: _574  and  _575
REMARK  220  A    between atoms: _574  and  _577
REMARK  221  A    between atoms: _577  and  _578
REMARK  222  A    between atoms: _578  and  _579
REMARK  223  A    between atoms: _579  and  _580
REMARK  224  A    between atoms: _580  and  _581
REMARK  225  A    between atoms: _585  and  _587
REMARK  226  A    between atoms: _587  and  _588
REMARK  227  A    between atoms: _587  and  _590
REMARK  228  A    between atoms: _590  and  _591
REMARK  229  A    between atoms: _597  and  _599
REMARK  230  A    between atoms: _599  and  _600
REMARK  231  A    between atoms: _599  and  _602
REMARK  232  A    between atoms: _602  and  _603
REMARK  233  A    between atoms: _609  and  _611
REMARK  234  A    between atoms: _611  and  _612
REMARK  235  A    between atoms: _615  and  _617
REMARK  236  A    between atoms: _617  and  _618
REMARK  237  A    between atoms: _617  and  _620
REMARK  238  A    between atoms: _620  and  _621
REMARK  239  A    between atoms: _621  and  _622
REMARK  240  A    between atoms: _624  and  _626
REMARK  241  A    between atoms: _626  and  _627
REMARK  242  A    between atoms: _626  and  _629
REMARK  243  A    between atoms: _629  and  _630
REMARK  244  A    between atoms: _630  and  _631
REMARK  245  A    between atoms: _631  and  _632
REMARK  246  A    between atoms: _632  and  _633
REMARK  247  A    between atoms: _637  and  _639
REMARK  248  A    between atoms: _639  and  _640
REMARK  249  A    between atoms: _639  and  _642
REMARK  250  A    between atoms: _642  and  _643
REMARK  251  A    between atoms: _648  and  _649
REMARK  252  A    between atoms: _651  and  _653
REMARK  253  A    between atoms: _653  and  _654
REMARK  254  A    between atoms: _653  and  _656
REMARK  255  A    between atoms: _656  and  _657
REMARK  256  A    between atoms: _662  and  _664
REMARK  257  A    between atoms: _664  and  _665
REMARK  258  A    between atoms: _664  and  _667
REMARK  259  A    between atoms: _667  and  _668
REMARK  260  A    between atoms: _671  and  _673
REMARK  261  A    between atoms: _673  and  _674
REMARK  262  A    between atoms: _677  and  _679
REMARK  263  A    between atoms: _679  and  _680
REMARK  264  A    between atoms: _679  and  _682
REMARK  265  A    between atoms: _682  and  _683
REMARK  266  A    between atoms: _686  and  _688
REMARK  267  A    between atoms: _688  and  _689
REMARK  268  A    between atoms: _688  and  _691
REMARK  269  A    between atoms: _694  and  _696
REMARK  270  A    between atoms: _696  and  _697
REMARK  271  A    between atoms: _696  and  _699
REMARK  272  A    between atoms: _699  and  _700
REMARK  273  A    between atoms: _700  and  _701
REMARK  274  A    between atoms: _704  and  _706
REMARK  275  A    between atoms: _706  and  _707
REMARK  276  A    between atoms: _706  and  _709
REMARK  277  A    between atoms: _709  and  _710
REMARK  278  A    between atoms: _715  and  _716
REMARK  279  A    between atoms: _718  and  _720
REMARK  280  A    between atoms: _720  and  _721
REMARK  281  A    between atoms: _720  and  _723
REMARK  282  A    between atoms: _723  and  _724
REMARK  283  A    between atoms: _724  and  _725
REMARK  284  A    between atoms: _725  and  _726
REMARK  285  A    between atoms: _735  and  _737
REMARK  286  A    between atoms: _737  and  _738
REMARK  287  A    between atoms: _737  and  _740
REMARK  288  A    between atoms: _740  and  _741
REMARK  289  A    between atoms: _746  and  _747
REMARK  290  A    between atoms: _749  and  _751
REMARK  291  A    between atoms: _751  and  _752
REMARK  292  A    between atoms: _751  and  _754
REMARK  293  A    between atoms: _754  and  _755
REMARK  294  A    between atoms: _758  and  _760
REMARK  295  A    between atoms: _760  and  _761
REMARK  296  A    between atoms: _760  and  _763
REMARK  297  A    between atoms: _763  and  _764
REMARK  298  A    between atoms: _766  and  _768
REMARK  299  A    between atoms: _768  and  _769
REMARK  300  A    between atoms: _768  and  _771
REMARK  301  A    between atoms: _771  and  _772
REMARK  302  A    between atoms: _778  and  _780
REMARK  303  A    between atoms: _780  and  _781
REMARK  304  A    between atoms: _780  and  _783
REMARK  305  A    between atoms: _783  and  _784
REMARK  306  A    between atoms: _784  and  _785
REMARK                            x       y       z     vdW  Elec       q    Type
REMARK                         _______ _______ _______ _____ _____    ______ ____
ROOT
ATOM      1  O   HOH     1      30.983  -2.900   2.339  0.00  0.00    +0.000 OA
ENDROOT
TORSDOF 0
REMARK  Name = ../refined-set-2016/4ca7/4ca7_pocket.pdb
REMARK  306 active torsions:
REMARK  status: ('A' for Active; 'I' for Inactive)
REMARK    1  A    between atoms: _1  and  _3
REMARK    2  A    between atoms: _3  and  _4
REMARK    3  A    between atoms: _3  and  _6
REMARK    4  A    between atoms: _6  and  _7
REMARK    5  A    between atoms: _7  and  _8
REMARK    6  A    between atoms: _8  and  _9
REMARK    7  A    between atoms: _9  and  _10
REMARK    8  A    between atoms: _14  and  _16
REMARK    9  A    between atoms: _16  and  _17
REMARK   10  A    between atoms: _16  and  _19
REMARK   11  A    between atoms: _19  and  _20
REMARK   12  A    between atoms: _20  and  _21
REMARK   13  A    between atoms: _24  and  _26
REMARK   14  A    between atoms: _26  and  _27
REMARK   15  A    between atoms: _26  and  _29
REMARK   16  A    between atoms: _29  and  _30
REMARK   17  A    between atoms: _30  and  _31
REMARK   18  A    between atoms: _34  and  _36
REMARK   19  A    between atoms: _36  and  _37
REMARK   20  A    between atoms: _36  and  _39
REMARK   21  A    between atoms: _39  and  _40
REMARK   22  A    between atoms: _45  and  _47
REMARK   23  A    between atoms: _47  and  _48
REMARK   24  A    between atoms: _47  and  _50
REMARK   25  A    between atoms: _50  and  _51
REMARK   26  A    between atoms: _61  and  _63
REMARK   27  A    between atoms: _63  and  _64
REMARK   28  A    between atoms: _63  and  _66
REMARK   29  A    between atoms: _66  and  _67
REMARK   30  A    between atoms: _67  and  _68
REMARK   31  A    between atoms: _73  and  _75
REMARK   32  A    between atoms: _75  and  _76
REMARK   33  A    between atoms: _75  and  _78
REMARK   34  A    between atoms: _78  and  _79
REMARK   35  A    between atoms: _79  and  _80
REMARK   36  A    between atoms: _85  and  _87
REMARK   37  A    between atoms: _87  and  _88
REMARK   38  A    between atoms: _87  and  _90
REMARK   39  A    between atoms: _90  and  _91
REMARK   40  A    between atoms: _93  and  _95
REMARK   41  A    between atoms: _95  and  _96
REMARK   42  A    between atoms: _95  and  _98
REMARK   43  A    between atoms: _101  and  _103
REMARK   44  A    between atoms: _103  and  _104
REMARK   45  A    between atoms: _103  and  _106
REMARK   46  A    between atoms: _108  and  _110
REMARK   47  A    between atoms: _110  and  _111
REMARK   48  A    between atoms: _110  and  _113
REMARK   49  A    between atoms: _113  and  _114
REMARK   50  A    between atoms: _119  and  _121
REMARK   51  A    between atoms: _121  and  _122
REMARK   52  A    between atoms: _125  and  _127
REMARK   53  A    between atoms: _127  and  _128
REMARK   54  A    between atoms: _127  and  _130
REMARK   55  A    between atoms: _130  and  _131
REMARK   56  A    between atoms: _133  and  _135
REMARK   57  A    between atoms: _135  and  _136
REMARK   58  A    between atoms: _139  and  _141
REMARK   59  A    between atoms: _141  and  _142
REMARK   60  A    between atoms: _141  and  _144
REMARK   61  A    between atoms: _144  and  _145
REMARK   62  A    between atoms: _155  and  _157
REMARK   63  A    between atoms: _157  and  _158
REMARK   64  A    between atoms: _157  and  _160
REMARK   65  A    between atoms: _160  and  _161
REMARK   66  A    between atoms: _164  and  _166
REMARK   67  A    between atoms: _166  and  _167
REMARK   68  A    between atoms: _166  and  _169
REMARK   69  A    between atoms: _169  and  _170
REMARK   70  A    between atoms: _175  and  _176
REMARK   71  A    between atoms: _178  and  _180
REMARK   72  A    between atoms: _180  and  _181
REMARK   73  A    between atoms: _180  and  _183
REMARK   74  A    between atoms: _183  and  _184
REMARK   75  A    between atoms: _184  and  _185
REMARK   76  A    between atoms: _185  and  _186
REMARK   77  A    between atoms: _195  and  _197
REMARK   78  A    between atoms: _197  and  _198
REMARK   79  A    between atoms: _197  and  _200
REMARK   80  A    between atoms: _200  and  _201
REMARK   81  A    between atoms: _204  and  _206
REMARK   82  A    between atoms: _206  and  _207
REMARK   83  A    between atoms: _206  and  _209
REMARK   84  A    between atoms: _209  and  _210
REMARK   85  A    between atoms: _210  and  _211
REMARK   86  A    between atoms: _211  and  _212
REMARK   87  A    between atoms: _212  and  _213
REMARK   88  A    between atoms: _217  and  _219
REMARK   89  A    between atoms: _219  and  _220
REMARK   90  A    between atoms: _219  and  _222
REMARK   91  A    between atoms: _222  and  _223
REMARK   92  A    between atoms: _223  and  _224
REMARK   93  A    between atoms: _229  and  _231
REMARK   94  A    between atoms: _231  and  _232
REMARK   95  A    between atoms: _231  and  _234
REMARK   96  A    between atoms: _234  and  _235
REMARK   97  A    between atoms: _235  and  _236
REMARK   98  A    between atoms: _236  and  _237
REMARK   99  A    between atoms: _246  and  _248
REMARK  100  A    between atoms: _248  and  _249
REMARK  101  A    between atoms: _248  and  _251
REMARK  102  A    between atoms: _251  and  _252
REMARK  103  A    between atoms: _252  and  _253
REMARK  104  A    between atoms: _258  and  _260
REMARK  105  A    between atoms: _260  and  _261
REMARK  106  A    between atoms: _260  and  _263
REMARK  107  A    between atoms: _263  and  _264
REMARK  108  A    between atoms: _267  and  _269
REMARK  109  A    between atoms: _269  and  _270
REMARK  110  A    between atoms: _269  and  _272
REMARK  111  A    between atoms: _272  and  _273
REMARK  112  A    between atoms: _273  and  _274
REMARK  113  A    between atoms: _279  and  _281
REMARK  114  A    between atoms: _281  and  _282
REMARK  115  A    between atoms: _281  and  _284
REMARK  116  A    between atoms: _284  and  _285
REMARK  117  A    between atoms: _288  and  _290
REMARK  118  A    between atoms: _290  and  _291
REMARK  119  A    between atoms: _290  and  _293
REMARK  120  A    between atoms: _293  and  _294
REMARK  121  A    between atoms: _300  and  _302
REMARK  122  A    between atoms: _302  and  _303
REMARK  123  A    between atoms: _302  and  _305
REMARK  124  A    between atoms: _305  and  _306
REMARK  125  A    between atoms: _309  and  _311
REMARK  126  A    between atoms: _311  and  _312
REMARK  127  A    between atoms: _311  and  _314
REMARK  128  A    between atoms: _317  and  _319
REMARK  129  A    between atoms: _319  and  _320
REMARK  130  A    between atoms: _319  and  _322
REMARK  131  A    between atoms: _322  and  _323
REMARK  132  A    between atoms: _328  and  _330
REMARK  133  A    between atoms: _341  and  _344
REMARK  134  A    between atoms: _344  and  _345
REMARK  135  A    between atoms: _345  and  _346
REMARK  136  A    between atoms: _351  and  _354
REMARK  137  A    between atoms: _354  and  _355
REMARK  138  A    between atoms: _365  and  _366
REMARK  139  A    between atoms: _374  and  _376
REMARK  140  A    between atoms: _376  and  _377
REMARK  141  A    between atoms: _376  and  _379
REMARK  142  A    between atoms: _379  and  _380
REMARK  143  A    between atoms: _383  and  _385
REMARK  144  A    between atoms: _385  and  _386
REMARK  145  A    between atoms: _385  and  _388
REMARK  146  A    between atoms: _388  and  _389
REMARK  147  A    between atoms: _394  and  _395
REMARK  148  A    between atoms: _397  and  _399
REMARK  149  A    between atoms: _399  and  _400
REMARK  150  A    between atoms: _399  and  _402
REMARK  151  A    between atoms: _402  and  _403
REMARK  152  A    between atoms: _409  and  _411
REMARK  153  A    between atoms: _411  and  _412
REMARK  154  A    between atoms: _411  and  _414
REMARK  155  A    between atoms: _414  and  _415
REMARK  156  A    between atoms: _420  and  _421
REMARK  157  A    between atoms: _423  and  _425
REMARK  158  A    between atoms: _425  and  _426
REMARK  159  A    between atoms: _425  and  _428
REMARK  160  A    between atoms: _428  and  _429
REMARK  161  A    between atoms: _429  and  _430
REMARK  162  A    between atoms: _430  and  _431
REMARK  163  A    between atoms: _440  and  _442
REMARK  164  A    between atoms: _442  and  _443
REMARK  165  A    between atoms: _442  and  _445
REMARK  166  A    between atoms: _445  and  _446
REMARK  167  A    between atoms: _449  and  _451
REMARK  168  A    between atoms: _451  and  _452
REMARK  169  A    between atoms: _454  and  _456
REMARK  170  A    between atoms: _456  and  _457
REMARK  171  A    between atoms: _456  and  _459
REMARK  172  A    between atoms: _459  and  _460
REMARK  173  A    between atoms: _466  and  _467
REMARK  174  A    between atoms: _472  and  _474
REMARK  175  A    between atoms: _474  and  _475
REMARK  176  A    between atoms: _477  and  _479
REMARK  177  A    between atoms: _479  and  _480
REMARK  178  A    between atoms: _479  and  _482
REMARK  179  A    between atoms: _482  and  _483
REMARK  180  A    between atoms: _489  and  _491
REMARK  181  A    between atoms: _491  and  _492
REMARK  182  A    between atoms: _491  and  _494
REMARK  183  A    between atoms: _494  and  _495
REMARK  184  A    between atoms: _500  and  _502
REMARK  185  A    between atoms: _502  and  _503
REMARK  186  A    between atoms: _502  and  _505
REMARK  187  A    between atoms: _505  and  _506
REMARK  188  A    between atoms: _506  and  _507
REMARK  189  A    between atoms: _507  and  _508
REMARK  190  A    between atoms: _508  and  ZN_790
REMARK  191  A    between atoms: _510  and  _512
REMARK  192  A    between atoms: _512  and  _513
REMARK  193  A    between atoms: _516  and  _518
REMARK  194  A    between atoms: _518  and  _519
REMARK  195  A    between atoms: _521  and  _523
REMARK  196  A    between atoms: _523  and  _524
REMARK  197  A    between atoms: _523  and  _526
REMARK  198  A    between atoms: _526  and  _527
REMARK  199  A    between atoms: _530  and  _532
REMARK  200  A    between atoms: _532  and  _533
REMARK  201  A    between atoms: _532  and  _535
REMARK  202  A    between atoms: _538  and  _540
REMARK  203  A    between atoms: _540  and  _541
REMARK  204  A    between atoms: _540  and  _543
REMARK  205  A    between atoms: _543  and  _544
REMARK  206  A    between atoms: _546  and  _548
REMARK  207  A    between atoms: _548  and  _549
REMARK  208  A    between atoms: _548  and  _551
REMARK  209  A    between atoms: _551  and  _552
REMARK  210  A    between atoms: _555  and  _557
REMARK  211  A    between atoms: _557  and  _558
REMARK  212  A    between atoms: _557  and  _560
REMARK  213  A    between atoms: _560  and  _561
REMARK  214  A    between atoms: _563  and  _565
REMARK  215  A    between atoms: _565  and  _566
REMARK  216  A    between atoms: _565  and  _568
REMARK  217  A    between atoms: _568  and  _569
REMARK  218  A    between atoms: _572  and  _574
REMARK  219  A    between atoms: _574  and  _575
REMARK  220  A    between atoms: _574  and  _577
REMARK  221  A    between atoms: _577  and  _578
REMARK  222  A    between atoms: _578  and  _579
REMARK  223  A    between atoms: _579  and  _580
REMARK  224  A    between atoms: _580  and  _581
REMARK  225  A    between atoms: _585  and  _587
REMARK  226  A    between atoms: _587  and  _588
REMARK  227  A    between atoms: _587  and  _590
REMARK  228  A    between atoms: _590  and  _591
REMARK  229  A    between atoms: _597  and  _599
REMARK  230  A    between atoms: _599  and  _600
REMARK  231  A    between atoms: _599  and  _602
REMARK  232  A    between atoms: _602  and  _603
REMARK  233  A    between atoms: _609  and  _611
REMARK  234  A    between atoms: _611  and  _612
REMARK  235  A    between atoms: _615  and  _617
REMARK  236  A    between atoms: _617  and  _618
REMARK  237  A    between atoms: _617  and  _620
REMARK  238  A    between atoms: _620  and  _621
REMARK  239  A    between atoms: _621  and  _622
REMARK  240  A    between atoms: _624  and  _626
REMARK  241  A    between atoms: _626  and  _627
REMARK  242  A    between atoms: _626  and  _629
REMARK  243  A    between atoms: _629  and  _630
REMARK  244  A    between atoms: _630  and  _631
REMARK  245  A    between atoms: _631  and  _632
REMARK  246  A    between atoms: _632  and  _633
REMARK  247  A    between atoms: _637  and  _639
REMARK  248  A    between atoms: _639  and  _640
REMARK  249  A    between atoms: _639  and  _642
REMARK  250  A    between atoms: _642  and  _643
REMARK  251  A    between atoms: _648  and  _649
REMARK  252  A    between atoms: _651  and  _653
REMARK  253  A    between atoms: _653  and  _654
REMARK  254  A    between atoms: _653  and  _656
REMARK  255  A    between atoms: _656  and  _657
REMARK  256  A    between atoms: _662  and  _664
REMARK  257  A    between atoms: _664  and  _665
REMARK  258  A    between atoms: _664  and  _667
REMARK  259  A    between atoms: _667  and  _668
REMARK  260  A    between atoms: _671  and  _673
REMARK  261  A    between atoms: _673  and  _674
REMARK  262  A    between atoms: _677  and  _679
REMARK  263  A    between atoms: _679  and  _680
REMARK  264  A    between atoms: _679  and  _682
REMARK  265  A    between atoms: _682  and  _683
REMARK  266  A    between atoms: _686  and  _688
REMARK  267  A    between atoms: _688  and  _689
REMARK  268  A    between atoms: _688  and  _691
REMARK  269  A    between atoms: _694  and  _696
REMARK  270  A    between atoms: _696  and  _697
REMARK  271  A    between atoms: _696  and  _699
REMARK  272  A    between atoms: _699  and  _700
REMARK  273  A    between atoms: _700  and  _701
REMARK  274  A    between atoms: _704  and  _706
REMARK  275  A    between atoms: _706  and  _707
REMARK  276  A    between atoms: _706  and  _709
REMARK  277  A    between atoms: _709  and  _710
REMARK  278  A    between atoms: _715  and  _716
REMARK  279  A    between atoms: _718  and  _720
REMARK  280  A    between atoms: _720  and  _721
REMARK  281  A    between atoms: _720  and  _723
REMARK  282  A    between atoms: _723  and  _724
REMARK  283  A    between atoms: _724  and  _725
REMARK  284  A    between atoms: _725  and  _726
REMARK  285  A    between atoms: _735  and  _737
REMARK  286  A    between atoms: _737  and  _738
REMARK  287  A    between atoms: _737  and  _740
REMARK  288  A    between atoms: _740  and  _741
REMARK  289  A    between atoms: _746  and  _747
REMARK  290  A    between atoms: _749  and  _751
REMARK  291  A    between atoms: _751  and  _752
REMARK  292  A    between atoms: _751  and  _754
REMARK  293  A    between atoms: _754  and  _755
REMARK  294  A    between atoms: _758  and  _760
REMARK  295  A    between atoms: _760  and  _761
REMARK  296  A    between atoms: _760  and  _763
REMARK  297  A    between atoms: _763  and  _764
REMARK  298  A    between atoms: _766  and  _768
REMARK  299  A    between atoms: _768  and  _769
REMARK  300  A    between atoms: _768  and  _771
REMARK  301  A    between atoms: _771  and  _772
REMARK  302  A    between atoms: _778  and  _780
REMARK  303  A    between atoms: _780  and  _781
REMARK  304  A    between atoms: _780  and  _783
REMARK  305  A    between atoms: _783  and  _784
REMARK  306  A    between atoms: _784  and  _785
REMARK                            x       y       z     vdW  Elec       q    Type
REMARK                         _______ _______ _______ _____ _____    ______ ____
ROOT
ATOM      1  O   HOH     1      26.383  -4.328   4.119  0.00  0.00    +0.000 OA
ENDROOT
TORSDOF 0
REMARK  Name = ../refined-set-2016/4ca7/4ca7_pocket.pdb
REMARK  306 active torsions:
REMARK  status: ('A' for Active; 'I' for Inactive)
REMARK    1  A    between atoms: _1  and  _3
REMARK    2  A    between atoms: _3  and  _4
REMARK    3  A    between atoms: _3  and  _6
REMARK    4  A    between atoms: _6  and  _7
REMARK    5  A    between atoms: _7  and  _8
REMARK    6  A    between atoms: _8  and  _9
REMARK    7  A    between atoms: _9  and  _10
REMARK    8  A    between atoms: _14  and  _16
REMARK    9  A    between atoms: _16  and  _17
REMARK   10  A    between atoms: _16  and  _19
REMARK   11  A    between atoms: _19  and  _20
REMARK   12  A    between atoms: _20  and  _21
REMARK   13  A    between atoms: _24  and  _26
REMARK   14  A    between atoms: _26  and  _27
REMARK   15  A    between atoms: _26  and  _29
REMARK   16  A    between atoms: _29  and  _30
REMARK   17  A    between atoms: _30  and  _31
REMARK   18  A    between atoms: _34  and  _36
REMARK   19  A    between atoms: _36  and  _37
REMARK   20  A    between atoms: _36  and  _39
REMARK   21  A    between atoms: _39  and  _40
REMARK   22  A    between atoms: _45  and  _47
REMARK   23  A    between atoms: _47  and  _48
REMARK   24  A    between atoms: _47  and  _50
REMARK   25  A    between atoms: _50  and  _51
REMARK   26  A    between atoms: _61  and  _63
REMARK   27  A    between atoms: _63  and  _64
REMARK   28  A    between atoms: _63  and  _66
REMARK   29  A    between atoms: _66  and  _67
REMARK   30  A    between atoms: _67  and  _68
REMARK   31  A    between atoms: _73  and  _75
REMARK   32  A    between atoms: _75  and  _76
REMARK   33  A    between atoms: _75  and  _78
REMARK   34  A    between atoms: _78  and  _79
REMARK   35  A    between atoms: _79  and  _80
REMARK   36  A    between atoms: _85  and  _87
REMARK   37  A    between atoms: _87  and  _88
REMARK   38  A    between atoms: _87  and  _90
REMARK   39  A    between atoms: _90  and  _91
REMARK   40  A    between atoms: _93  and  _95
REMARK   41  A    between atoms: _95  and  _96
REMARK   42  A    between atoms: _95  and  _98
REMARK   43  A    between atoms: _101  and  _103
REMARK   44  A    between atoms: _103  and  _104
REMARK   45  A    between atoms: _103  and  _106
REMARK   46  A    between atoms: _108  and  _110
REMARK   47  A    between atoms: _110  and  _111
REMARK   48  A    between atoms: _110  and  _113
REMARK   49  A    between atoms: _113  and  _114
REMARK   50  A    between atoms: _119  and  _121
REMARK   51  A    between atoms: _121  and  _122
REMARK   52  A    between atoms: _125  and  _127
REMARK   53  A    between atoms: _127  and  _128
REMARK   54  A    between atoms: _127  and  _130
REMARK   55  A    between atoms: _130  and  _131
REMARK   56  A    between atoms: _133  and  _135
REMARK   57  A    between atoms: _135  and  _136
REMARK   58  A    between atoms: _139  and  _141
REMARK   59  A    between atoms: _141  and  _142
REMARK   60  A    between atoms: _141  and  _144
REMARK   61  A    between atoms: _144  and  _145
REMARK   62  A    between atoms: _155  and  _157
REMARK   63  A    between atoms: _157  and  _158
REMARK   64  A    between atoms: _157  and  _160
REMARK   65  A    between atoms: _160  and  _161
REMARK   66  A    between atoms: _164  and  _166
REMARK   67  A    between atoms: _166  and  _167
REMARK   68  A    between atoms: _166  and  _169
REMARK   69  A    between atoms: _169  and  _170
REMARK   70  A    between atoms: _175  and  _176
REMARK   71  A    between atoms: _178  and  _180
REMARK   72  A    between atoms: _180  and  _181
REMARK   73  A    between atoms: _180  and  _183
REMARK   74  A    between atoms: _183  and  _184
REMARK   75  A    between atoms: _184  and  _185
REMARK   76  A    between atoms: _185  and  _186
REMARK   77  A    between atoms: _195  and  _197
REMARK   78  A    between atoms: _197  and  _198
REMARK   79  A    between atoms: _197  and  _200
REMARK   80  A    between atoms: _200  and  _201
REMARK   81  A    between atoms: _204  and  _206
REMARK   82  A    between atoms: _206  and  _207
REMARK   83  A    between atoms: _206  and  _209
REMARK   84  A    between atoms: _209  and  _210
REMARK   85  A    between atoms: _210  and  _211
REMARK   86  A    between atoms: _211  and  _212
REMARK   87  A    between atoms: _212  and  _213
REMARK   88  A    between atoms: _217  and  _219
REMARK   89  A    between atoms: _219  and  _220
REMARK   90  A    between atoms: _219  and  _222
REMARK   91  A    between atoms: _222  and  _223
REMARK   92  A    between atoms: _223  and  _224
REMARK   93  A    between atoms: _229  and  _231
REMARK   94  A    between atoms: _231  and  _232
REMARK   95  A    between atoms: _231  and  _234
REMARK   96  A    between atoms: _234  and  _235
REMARK   97  A    between atoms: _235  and  _236
REMARK   98  A    between atoms: _236  and  _237
REMARK   99  A    between atoms: _246  and  _248
REMARK  100  A    between atoms: _248  and  _249
REMARK  101  A    between atoms: _248  and  _251
REMARK  102  A    between atoms: _251  and  _252
REMARK  103  A    between atoms: _252  and  _253
REMARK  104  A    between atoms: _258  and  _260
REMARK  105  A    between atoms: _260  and  _261
REMARK  106  A    between atoms: _260  and  _263
REMARK  107  A    between atoms: _263  and  _264
REMARK  108  A    between atoms: _267  and  _269
REMARK  109  A    between atoms: _269  and  _270
REMARK  110  A    between atoms: _269  and  _272
REMARK  111  A    between atoms: _272  and  _273
REMARK  112  A    between atoms: _273  and  _274
REMARK  113  A    between atoms: _279  and  _281
REMARK  114  A    between atoms: _281  and  _282
REMARK  115  A    between atoms: _281  and  _284
REMARK  116  A    between atoms: _284  and  _285
REMARK  117  A    between atoms: _288  and  _290
REMARK  118  A    between atoms: _290  and  _291
REMARK  119  A    between atoms: _290  and  _293
REMARK  120  A    between atoms: _293  and  _294
REMARK  121  A    between atoms: _300  and  _302
REMARK  122  A    between atoms: _302  and  _303
REMARK  123  A    between atoms: _302  and  _305
REMARK  124  A    between atoms: _305  and  _306
REMARK  125  A    between atoms: _309  and  _311
REMARK  126  A    between atoms: _311  and  _312
REMARK  127  A    between atoms: _311  and  _314
REMARK  128  A    between atoms: _317  and  _319
REMARK  129  A    between atoms: _319  and  _320
REMARK  130  A    between atoms: _319  and  _322
REMARK  131  A    between atoms: _322  and  _323
REMARK  132  A    between atoms: _328  and  _330
REMARK  133  A    between atoms: _341  and  _344
REMARK  134  A    between atoms: _344  and  _345
REMARK  135  A    between atoms: _345  and  _346
REMARK  136  A    between atoms: _351  and  _354
REMARK  137  A    between atoms: _354  and  _355
REMARK  138  A    between atoms: _365  and  _366
REMARK  139  A    between atoms: _374  and  _376
REMARK  140  A    between atoms: _376  and  _377
REMARK  141  A    between atoms: _376  and  _379
REMARK  142  A    between atoms: _379  and  _380
REMARK  143  A    between atoms: _383  and  _385
REMARK  144  A    between atoms: _385  and  _386
REMARK  145  A    between atoms: _385  and  _388
REMARK  146  A    between atoms: _388  and  _389
REMARK  147  A    between atoms: _394  and  _395
REMARK  148  A    between atoms: _397  and  _399
REMARK  149  A    between atoms: _399  and  _400
REMARK  150  A    between atoms: _399  and  _402
REMARK  151  A    between atoms: _402  and  _403
REMARK  152  A    between atoms: _409  and  _411
REMARK  153  A    between atoms: _411  and  _412
REMARK  154  A    between atoms: _411  and  _414
REMARK  155  A    between atoms: _414  and  _415
REMARK  156  A    between atoms: _420  and  _421
REMARK  157  A    between atoms: _423  and  _425
REMARK  158  A    between atoms: _425  and  _426
REMARK  159  A    between atoms: _425  and  _428
REMARK  160  A    between atoms: _428  and  _429
REMARK  161  A    between atoms: _429  and  _430
REMARK  162  A    between atoms: _430  and  _431
REMARK  163  A    between atoms: _440  and  _442
REMARK  164  A    between atoms: _442  and  _443
REMARK  165  A    between atoms: _442  and  _445
REMARK  166  A    between atoms: _445  and  _446
REMARK  167  A    between atoms: _449  and  _451
REMARK  168  A    between atoms: _451  and  _452
REMARK  169  A    between atoms: _454  and  _456
REMARK  170  A    between atoms: _456  and  _457
REMARK  171  A    between atoms: _456  and  _459
REMARK  172  A    between atoms: _459  and  _460
REMARK  173  A    between atoms: _466  and  _467
REMARK  174  A    between atoms: _472  and  _474
REMARK  175  A    between atoms: _474  and  _475
REMARK  176  A    between atoms: _477  and  _479
REMARK  177  A    between atoms: _479  and  _480
REMARK  178  A    between atoms: _479  and  _482
REMARK  179  A    between atoms: _482  and  _483
REMARK  180  A    between atoms: _489  and  _491
REMARK  181  A    between atoms: _491  and  _492
REMARK  182  A    between atoms: _491  and  _494
REMARK  183  A    between atoms: _494  and  _495
REMARK  184  A    between atoms: _500  and  _502
REMARK  185  A    between atoms: _502  and  _503
REMARK  186  A    between atoms: _502  and  _505
REMARK  187  A    between atoms: _505  and  _506
REMARK  188  A    between atoms: _506  and  _507
REMARK  189  A    between atoms: _507  and  _508
REMARK  190  A    between atoms: _508  and  ZN_790
REMARK  191  A    between atoms: _510  and  _512
REMARK  192  A    between atoms: _512  and  _513
REMARK  193  A    between atoms: _516  and  _518
REMARK  194  A    between atoms: _518  and  _519
REMARK  195  A    between atoms: _521  and  _523
REMARK  196  A    between atoms: _523  and  _524
REMARK  197  A    between atoms: _523  and  _526
REMARK  198  A    between atoms: _526  and  _527
REMARK  199  A    between atoms: _530  and  _532
REMARK  200  A    between atoms: _532  and  _533
REMARK  201  A    between atoms: _532  and  _535
REMARK  202  A    between atoms: _538  and  _540
REMARK  203  A    between atoms: _540  and  _541
REMARK  204  A    between atoms: _540  and  _543
REMARK  205  A    between atoms: _543  and  _544
REMARK  206  A    between atoms: _546  and  _548
REMARK  207  A    between atoms: _548  and  _549
REMARK  208  A    between atoms: _548  and  _551
REMARK  209  A    between atoms: _551  and  _552
REMARK  210  A    between atoms: _555  and  _557
REMARK  211  A    between atoms: _557  and  _558
REMARK  212  A    between atoms: _557  and  _560
REMARK  213  A    between atoms: _560  and  _561
REMARK  214  A    between atoms: _563  and  _565
REMARK  215  A    between atoms: _565  and  _566
REMARK  216  A    between atoms: _565  and  _568
REMARK  217  A    between atoms: _568  and  _569
REMARK  218  A    between atoms: _572  and  _574
REMARK  219  A    between atoms: _574  and  _575
REMARK  220  A    between atoms: _574  and  _577
REMARK  221  A    between atoms: _577  and  _578
REMARK  222  A    between atoms: _578  and  _579
REMARK  223  A    between atoms: _579  and  _580
REMARK  224  A    between atoms: _580  and  _581
REMARK  225  A    between atoms: _585  and  _587
REMARK  226  A    between atoms: _587  and  _588
REMARK  227  A    between atoms: _587  and  _590
REMARK  228  A    between atoms: _590  and  _591
REMARK  229  A    between atoms: _597  and  _599
REMARK  230  A    between atoms: _599  and  _600
REMARK  231  A    between atoms: _599  and  _602
REMARK  232  A    between atoms: _602  and  _603
REMARK  233  A    between atoms: _609  and  _611
REMARK  234  A    between atoms: _611  and  _612
REMARK  235  A    between atoms: _615  and  _617
REMARK  236  A    between atoms: _617  and  _618
REMARK  237  A    between atoms: _617  and  _620
REMARK  238  A    between atoms: _620  and  _621
REMARK  239  A    between atoms: _621  and  _622
REMARK  240  A    between atoms: _624  and  _626
REMARK  241  A    between atoms: _626  and  _627
REMARK  242  A    between atoms: _626  and  _629
REMARK  243  A    between atoms: _629  and  _630
REMARK  244  A    between atoms: _630  and  _631
REMARK  245  A    between atoms: _631  and  _632
REMARK  246  A    between atoms: _632  and  _633
REMARK  247  A    between atoms: _637  and  _639
REMARK  248  A    between atoms: _639  and  _640
REMARK  249  A    between atoms: _639  and  _642
REMARK  250  A    between atoms: _642  and  _643
REMARK  251  A    between atoms: _648  and  _649
REMARK  252  A    between atoms: _651  and  _653
REMARK  253  A    between atoms: _653  and  _654
REMARK  254  A    between atoms: _653  and  _656
REMARK  255  A    between atoms: _656  and  _657
REMARK  256  A    between atoms: _662  and  _664
REMARK  257  A    between atoms: _664  and  _665
REMARK  258  A    between atoms: _664  and  _667
REMARK  259  A    between atoms: _667  and  _668
REMARK  260  A    between atoms: _671  and  _673
REMARK  261  A    between atoms: _673  and  _674
REMARK  262  A    between atoms: _677  and  _679
REMARK  263  A    between atoms: _679  and  _680
REMARK  264  A    between atoms: _679  and  _682
REMARK  265  A    between atoms: _682  and  _683
REMARK  266  A    between atoms: _686  and  _688
REMARK  267  A    between atoms: _688  and  _689
REMARK  268  A    between atoms: _688  and  _691
REMARK  269  A    between atoms: _694  and  _696
REMARK  270  A    between atoms: _696  and  _697
REMARK  271  A    between atoms: _696  and  _699
REMARK  272  A    between atoms: _699  and  _700
REMARK  273  A    between atoms: _700  and  _701
REMARK  274  A    between atoms: _704  and  _706
REMARK  275  A    between atoms: _706  and  _707
REMARK  276  A    between atoms: _706  and  _709
REMARK  277  A    between atoms: _709  and  _710
REMARK  278  A    between atoms: _715  and  _716
REMARK  279  A    between atoms: _718  and  _720
REMARK  280  A    between atoms: _720  and  _721
REMARK  281  A    between atoms: _720  and  _723
REMARK  282  A    between atoms: _723  and  _724
REMARK  283  A    between atoms: _724  and  _725
REMARK  284  A    between atoms: _725  and  _726
REMARK  285  A    between atoms: _735  and  _737
REMARK  286  A    between atoms: _737  and  _738
REMARK  287  A    between atoms: _737  and  _740
REMARK  288  A    between atoms: _740  and  _741
REMARK  289  A    between atoms: _746  and  _747
REMARK  290  A    between atoms: _749  and  _751
REMARK  291  A    between atoms: _751  and  _752
REMARK  292  A    between atoms: _751  and  _754
REMARK  293  A    between atoms: _754  and  _755
REMARK  294  A    between atoms: _758  and  _760
REMARK  295  A    between atoms: _760  and  _761
REMARK  296  A    between atoms: _760  and  _763
REMARK  297  A    between atoms: _763  and  _764
REMARK  298  A    between atoms: _766  and  _768
REMARK  299  A    between atoms: _768  and  _769
REMARK  300  A    between atoms: _768  and  _771
REMARK  301  A    between atoms: _771  and  _772
REMARK  302  A    between atoms: _778  and  _780
REMARK  303  A    between atoms: _780  and  _781
REMARK  304  A    between atoms: _780  and  _783
REMARK  305  A    between atoms: _783  and  _784
REMARK  306  A    between atoms: _784  and  _785
REMARK                            x       y       z     vdW  Elec       q    Type
REMARK                         _______ _______ _______ _____ _____    ______ ____
ROOT
ATOM      1  O   HOH     1      23.610   5.221  11.036  0.00  0.00    +0.000 OA
ENDROOT
TORSDOF 0
REMARK  Name = ../refined-set-2016/4ca7/4ca7_pocket.pdb
REMARK  306 active torsions:
REMARK  status: ('A' for Active; 'I' for Inactive)
REMARK    1  A    between atoms: _1  and  _3
REMARK    2  A    between atoms: _3  and  _4
REMARK    3  A    between atoms: _3  and  _6
REMARK    4  A    between atoms: _6  and  _7
REMARK    5  A    between atoms: _7  and  _8
REMARK    6  A    between atoms: _8  and  _9
REMARK    7  A    between atoms: _9  and  _10
REMARK    8  A    between atoms: _14  and  _16
REMARK    9  A    between atoms: _16  and  _17
REMARK   10  A    between atoms: _16  and  _19
REMARK   11  A    between atoms: _19  and  _20
REMARK   12  A    between atoms: _20  and  _21
REMARK   13  A    between atoms: _24  and  _26
REMARK   14  A    between atoms: _26  and  _27
REMARK   15  A    between atoms: _26  and  _29
REMARK   16  A    between atoms: _29  and  _30
REMARK   17  A    between atoms: _30  and  _31
REMARK   18  A    between atoms: _34  and  _36
REMARK   19  A    between atoms: _36  and  _37
REMARK   20  A    between atoms: _36  and  _39
REMARK   21  A    between atoms: _39  and  _40
REMARK   22  A    between atoms: _45  and  _47
REMARK   23  A    between atoms: _47  and  _48
REMARK   24  A    between atoms: _47  and  _50
REMARK   25  A    between atoms: _50  and  _51
REMARK   26  A    between atoms: _61  and  _63
REMARK   27  A    between atoms: _63  and  _64
REMARK   28  A    between atoms: _63  and  _66
REMARK   29  A    between atoms: _66  and  _67
REMARK   30  A    between atoms: _67  and  _68
REMARK   31  A    between atoms: _73  and  _75
REMARK   32  A    between atoms: _75  and  _76
REMARK   33  A    between atoms: _75  and  _78
REMARK   34  A    between atoms: _78  and  _79
REMARK   35  A    between atoms: _79  and  _80
REMARK   36  A    between atoms: _85  and  _87
REMARK   37  A    between atoms: _87  and  _88
REMARK   38  A    between atoms: _87  and  _90
REMARK   39  A    between atoms: _90  and  _91
REMARK   40  A    between atoms: _93  and  _95
REMARK   41  A    between atoms: _95  and  _96
REMARK   42  A    between atoms: _95  and  _98
REMARK   43  A    between atoms: _101  and  _103
REMARK   44  A    between atoms: _103  and  _104
REMARK   45  A    between atoms: _103  and  _106
REMARK   46  A    between atoms: _108  and  _110
REMARK   47  A    between atoms: _110  and  _111
REMARK   48  A    between atoms: _110  and  _113
REMARK   49  A    between atoms: _113  and  _114
REMARK   50  A    between atoms: _119  and  _121
REMARK   51  A    between atoms: _121  and  _122
REMARK   52  A    between atoms: _125  and  _127
REMARK   53  A    between atoms: _127  and  _128
REMARK   54  A    between atoms: _127  and  _130
REMARK   55  A    between atoms: _130  and  _131
REMARK   56  A    between atoms: _133  and  _135
REMARK   57  A    between atoms: _135  and  _136
REMARK   58  A    between atoms: _139  and  _141
REMARK   59  A    between atoms: _141  and  _142
REMARK   60  A    between atoms: _141  and  _144
REMARK   61  A    between atoms: _144  and  _145
REMARK   62  A    between atoms: _155  and  _157
REMARK   63  A    between atoms: _157  and  _158
REMARK   64  A    between atoms: _157  and  _160
REMARK   65  A    between atoms: _160  and  _161
REMARK   66  A    between atoms: _164  and  _166
REMARK   67  A    between atoms: _166  and  _167
REMARK   68  A    between atoms: _166  and  _169
REMARK   69  A    between atoms: _169  and  _170
REMARK   70  A    between atoms: _175  and  _176
REMARK   71  A    between atoms: _178  and  _180
REMARK   72  A    between atoms: _180  and  _181
REMARK   73  A    between atoms: _180  and  _183
REMARK   74  A    between atoms: _183  and  _184
REMARK   75  A    between atoms: _184  and  _185
REMARK   76  A    between atoms: _185  and  _186
REMARK   77  A    between atoms: _195  and  _197
REMARK   78  A    between atoms: _197  and  _198
REMARK   79  A    between atoms: _197  and  _200
REMARK   80  A    between atoms: _200  and  _201
REMARK   81  A    between atoms: _204  and  _206
REMARK   82  A    between atoms: _206  and  _207
REMARK   83  A    between atoms: _206  and  _209
REMARK   84  A    between atoms: _209  and  _210
REMARK   85  A    between atoms: _210  and  _211
REMARK   86  A    between atoms: _211  and  _212
REMARK   87  A    between atoms: _212  and  _213
REMARK   88  A    between atoms: _217  and  _219
REMARK   89  A    between atoms: _219  and  _220
REMARK   90  A    between atoms: _219  and  _222
REMARK   91  A    between atoms: _222  and  _223
REMARK   92  A    between atoms: _223  and  _224
REMARK   93  A    between atoms: _229  and  _231
REMARK   94  A    between atoms: _231  and  _232
REMARK   95  A    between atoms: _231  and  _234
REMARK   96  A    between atoms: _234  and  _235
REMARK   97  A    between atoms: _235  and  _236
REMARK   98  A    between atoms: _236  and  _237
REMARK   99  A    between atoms: _246  and  _248
REMARK  100  A    between atoms: _248  and  _249
REMARK  101  A    between atoms: _248  and  _251
REMARK  102  A    between atoms: _251  and  _252
REMARK  103  A    between atoms: _252  and  _253
REMARK  104  A    between atoms: _258  and  _260
REMARK  105  A    between atoms: _260  and  _261
REMARK  106  A    between atoms: _260  and  _263
REMARK  107  A    between atoms: _263  and  _264
REMARK  108  A    between atoms: _267  and  _269
REMARK  109  A    between atoms: _269  and  _270
REMARK  110  A    between atoms: _269  and  _272
REMARK  111  A    between atoms: _272  and  _273
REMARK  112  A    between atoms: _273  and  _274
REMARK  113  A    between atoms: _279  and  _281
REMARK  114  A    between atoms: _281  and  _282
REMARK  115  A    between atoms: _281  and  _284
REMARK  116  A    between atoms: _284  and  _285
REMARK  117  A    between atoms: _288  and  _290
REMARK  118  A    between atoms: _290  and  _291
REMARK  119  A    between atoms: _290  and  _293
REMARK  120  A    between atoms: _293  and  _294
REMARK  121  A    between atoms: _300  and  _302
REMARK  122  A    between atoms: _302  and  _303
REMARK  123  A    between atoms: _302  and  _305
REMARK  124  A    between atoms: _305  and  _306
REMARK  125  A    between atoms: _309  and  _311
REMARK  126  A    between atoms: _311  and  _312
REMARK  127  A    between atoms: _311  and  _314
REMARK  128  A    between atoms: _317  and  _319
REMARK  129  A    between atoms: _319  and  _320
REMARK  130  A    between atoms: _319  and  _322
REMARK  131  A    between atoms: _322  and  _323
REMARK  132  A    between atoms: _328  and  _330
REMARK  133  A    between atoms: _341  and  _344
REMARK  134  A    between atoms: _344  and  _345
REMARK  135  A    between atoms: _345  and  _346
REMARK  136  A    between atoms: _351  and  _354
REMARK  137  A    between atoms: _354  and  _355
REMARK  138  A    between atoms: _365  and  _366
REMARK  139  A    between atoms: _374  and  _376
REMARK  140  A    between atoms: _376  and  _377
REMARK  141  A    between atoms: _376  and  _379
REMARK  142  A    between atoms: _379  and  _380
REMARK  143  A    between atoms: _383  and  _385
REMARK  144  A    between atoms: _385  and  _386
REMARK  145  A    between atoms: _385  and  _388
REMARK  146  A    between atoms: _388  and  _389
REMARK  147  A    between atoms: _394  and  _395
REMARK  148  A    between atoms: _397  and  _399
REMARK  149  A    between atoms: _399  and  _400
REMARK  150  A    between atoms: _399  and  _402
REMARK  151  A    between atoms: _402  and  _403
REMARK  152  A    between atoms: _409  and  _411
REMARK  153  A    between atoms: _411  and  _412
REMARK  154  A    between atoms: _411  and  _414
REMARK  155  A    between atoms: _414  and  _415
REMARK  156  A    between atoms: _420  and  _421
REMARK  157  A    between atoms: _423  and  _425
REMARK  158  A    between atoms: _425  and  _426
REMARK  159  A    between atoms: _425  and  _428
REMARK  160  A    between atoms: _428  and  _429
REMARK  161  A    between atoms: _429  and  _430
REMARK  162  A    between atoms: _430  and  _431
REMARK  163  A    between atoms: _440  and  _442
REMARK  164  A    between atoms: _442  and  _443
REMARK  165  A    between atoms: _442  and  _445
REMARK  166  A    between atoms: _445  and  _446
REMARK  167  A    between atoms: _449  and  _451
REMARK  168  A    between atoms: _451  and  _452
REMARK  169  A    between atoms: _454  and  _456
REMARK  170  A    between atoms: _456  and  _457
REMARK  171  A    between atoms: _456  and  _459
REMARK  172  A    between atoms: _459  and  _460
REMARK  173  A    between atoms: _466  and  _467
REMARK  174  A    between atoms: _472  and  _474
REMARK  175  A    between atoms: _474  and  _475
REMARK  176  A    between atoms: _477  and  _479
REMARK  177  A    between atoms: _479  and  _480
REMARK  178  A    between atoms: _479  and  _482
REMARK  179  A    between atoms: _482  and  _483
REMARK  180  A    between atoms: _489  and  _491
REMARK  181  A    between atoms: _491  and  _492
REMARK  182  A    between atoms: _491  and  _494
REMARK  183  A    between atoms: _494  and  _495
REMARK  184  A    between atoms: _500  and  _502
REMARK  185  A    between atoms: _502  and  _503
REMARK  186  A    between atoms: _502  and  _505
REMARK  187  A    between atoms: _505  and  _506
REMARK  188  A    between atoms: _506  and  _507
REMARK  189  A    between atoms: _507  and  _508
REMARK  190  A    between atoms: _508  and  ZN_790
REMARK  191  A    between atoms: _510  and  _512
REMARK  192  A    between atoms: _512  and  _513
REMARK  193  A    between atoms: _516  and  _518
REMARK  194  A    between atoms: _518  and  _519
REMARK  195  A    between atoms: _521  and  _523
REMARK  196  A    between atoms: _523  and  _524
REMARK  197  A    between atoms: _523  and  _526
REMARK  198  A    between atoms: _526  and  _527
REMARK  199  A    between atoms: _530  and  _532
REMARK  200  A    between atoms: _532  and  _533
REMARK  201  A    between atoms: _532  and  _535
REMARK  202  A    between atoms: _538  and  _540
REMARK  203  A    between atoms: _540  and  _541
REMARK  204  A    between atoms: _540  and  _543
REMARK  205  A    between atoms: _543  and  _544
REMARK  206  A    between atoms: _546  and  _548
REMARK  207  A    between atoms: _548  and  _549
REMARK  208  A    between atoms: _548  and  _551
REMARK  209  A    between atoms: _551  and  _552
REMARK  210  A    between atoms: _555  and  _557
REMARK  211  A    between atoms: _557  and  _558
REMARK  212  A    between atoms: _557  and  _560
REMARK  213  A    between atoms: _560  and  _561
REMARK  214  A    between atoms: _563  and  _565
REMARK  215  A    between atoms: _565  and  _566
REMARK  216  A    between atoms: _565  and  _568
REMARK  217  A    between atoms: _568  and  _569
REMARK  218  A    between atoms: _572  and  _574
REMARK  219  A    between atoms: _574  and  _575
REMARK  220  A    between atoms: _574  and  _577
REMARK  221  A    between atoms: _577  and  _578
REMARK  222  A    between atoms: _578  and  _579
REMARK  223  A    between atoms: _579  and  _580
REMARK  224  A    between atoms: _580  and  _581
REMARK  225  A    between atoms: _585  and  _587
REMARK  226  A    between atoms: _587  and  _588
REMARK  227  A    between atoms: _587  and  _590
REMARK  228  A    between atoms: _590  and  _591
REMARK  229  A    between atoms: _597  and  _599
REMARK  230  A    between atoms: _599  and  _600
REMARK  231  A    between atoms: _599  and  _602
REMARK  232  A    between atoms: _602  and  _603
REMARK  233  A    between atoms: _609  and  _611
REMARK  234  A    between atoms: _611  and  _612
REMARK  235  A    between atoms: _615  and  _617
REMARK  236  A    between atoms: _617  and  _618
REMARK  237  A    between atoms: _617  and  _620
REMARK  238  A    between atoms: _620  and  _621
REMARK  239  A    between atoms: _621  and  _622
REMARK  240  A    between atoms: _624  and  _626
REMARK  241  A    between atoms: _626  and  _627
REMARK  242  A    between atoms: _626  and  _629
REMARK  243  A    between atoms: _629  and  _630
REMARK  244  A    between atoms: _630  and  _631
REMARK  245  A    between atoms: _631  and  _632
REMARK  246  A    between atoms: _632  and  _633
REMARK  247  A    between atoms: _637  and  _639
REMARK  248  A    between atoms: _639  and  _640
REMARK  249  A    between atoms: _639  and  _642
REMARK  250  A    between atoms: _642  and  _643
REMARK  251  A    between atoms: _648  and  _649
REMARK  252  A    between atoms: _651  and  _653
REMARK  253  A    between atoms: _653  and  _654
REMARK  254  A    between atoms: _653  and  _656
REMARK  255  A    between atoms: _656  and  _657
REMARK  256  A    between atoms: _662  and  _664
REMARK  257  A    between atoms: _664  and  _665
REMARK  258  A    between atoms: _664  and  _667
REMARK  259  A    between atoms: _667  and  _668
REMARK  260  A    between atoms: _671  and  _673
REMARK  261  A    between atoms: _673  and  _674
REMARK  262  A    between atoms: _677  and  _679
REMARK  263  A    between atoms: _679  and  _680
REMARK  264  A    between atoms: _679  and  _682
REMARK  265  A    between atoms: _682  and  _683
REMARK  266  A    between atoms: _686  and  _688
REMARK  267  A    between atoms: _688  and  _689
REMARK  268  A    between atoms: _688  and  _691
REMARK  269  A    between atoms: _694  and  _696
REMARK  270  A    between atoms: _696  and  _697
REMARK  271  A    between atoms: _696  and  _699
REMARK  272  A    between atoms: _699  and  _700
REMARK  273  A    between atoms: _700  and  _701
REMARK  274  A    between atoms: _704  and  _706
REMARK  275  A    between atoms: _706  and  _707
REMARK  276  A    between atoms: _706  and  _709
REMARK  277  A    between atoms: _709  and  _710
REMARK  278  A    between atoms: _715  and  _716
REMARK  279  A    between atoms: _718  and  _720
REMARK  280  A    between atoms: _720  and  _721
REMARK  281  A    between atoms: _720  and  _723
REMARK  282  A    between atoms: _723  and  _724
REMARK  283  A    between atoms: _724  and  _725
REMARK  284  A    between atoms: _725  and  _726
REMARK  285  A    between atoms: _735  and  _737
REMARK  286  A    between atoms: _737  and  _738
REMARK  287  A    between atoms: _737  and  _740
REMARK  288  A    between atoms: _740  and  _741
REMARK  289  A    between atoms: _746  and  _747
REMARK  290  A    between atoms: _749  and  _751
REMARK  291  A    between atoms: _751  and  _752
REMARK  292  A    between atoms: _751  and  _754
REMARK  293  A    between atoms: _754  and  _755
REMARK  294  A    between atoms: _758  and  _760
REMARK  295  A    between atoms: _760  and  _761
REMARK  296  A    between atoms: _760  and  _763
REMARK  297  A    between atoms: _763  and  _764
REMARK  298  A    between atoms: _766  and  _768
REMARK  299  A    between atoms: _768  and  _769
REMARK  300  A    between atoms: _768  and  _771
REMARK  301  A    between atoms: _771  and  _772
REMARK  302  A    between atoms: _778  and  _780
REMARK  303  A    between atoms: _780  and  _781
REMARK  304  A    between atoms: _780  and  _783
REMARK  305  A    between atoms: _783  and  _784
REMARK  306  A    between atoms: _784  and  _785
REMARK                            x       y       z     vdW  Elec       q    Type
REMARK                         _______ _______ _______ _____ _____    ______ ____
ROOT
ATOM      1  O   HOH     1      21.230   7.480  13.770  0.00  0.00    +0.000 OA
ENDROOT
TORSDOF 0
REMARK  Name = ../refined-set-2016/4ca7/4ca7_pocket.pdb
REMARK  306 active torsions:
REMARK  status: ('A' for Active; 'I' for Inactive)
REMARK    1  A    between atoms: _1  and  _3
REMARK    2  A    between atoms: _3  and  _4
REMARK    3  A    between atoms: _3  and  _6
REMARK    4  A    between atoms: _6  and  _7
REMARK    5  A    between atoms: _7  and  _8
REMARK    6  A    between atoms: _8  and  _9
REMARK    7  A    between atoms: _9  and  _10
REMARK    8  A    between atoms: _14  and  _16
REMARK    9  A    between atoms: _16  and  _17
REMARK   10  A    between atoms: _16  and  _19
REMARK   11  A    between atoms: _19  and  _20
REMARK   12  A    between atoms: _20  and  _21
REMARK   13  A    between atoms: _24  and  _26
REMARK   14  A    between atoms: _26  and  _27
REMARK   15  A    between atoms: _26  and  _29
REMARK   16  A    between atoms: _29  and  _30
REMARK   17  A    between atoms: _30  and  _31
REMARK   18  A    between atoms: _34  and  _36
REMARK   19  A    between atoms: _36  and  _37
REMARK   20  A    between atoms: _36  and  _39
REMARK   21  A    between atoms: _39  and  _40
REMARK   22  A    between atoms: _45  and  _47
REMARK   23  A    between atoms: _47  and  _48
REMARK   24  A    between atoms: _47  and  _50
REMARK   25  A    between atoms: _50  and  _51
REMARK   26  A    between atoms: _61  and  _63
REMARK   27  A    between atoms: _63  and  _64
REMARK   28  A    between atoms: _63  and  _66
REMARK   29  A    between atoms: _66  and  _67
REMARK   30  A    between atoms: _67  and  _68
REMARK   31  A    between atoms: _73  and  _75
REMARK   32  A    between atoms: _75  and  _76
REMARK   33  A    between atoms: _75  and  _78
REMARK   34  A    between atoms: _78  and  _79
REMARK   35  A    between atoms: _79  and  _80
REMARK   36  A    between atoms: _85  and  _87
REMARK   37  A    between atoms: _87  and  _88
REMARK   38  A    between atoms: _87  and  _90
REMARK   39  A    between atoms: _90  and  _91
REMARK   40  A    between atoms: _93  and  _95
REMARK   41  A    between atoms: _95  and  _96
REMARK   42  A    between atoms: _95  and  _98
REMARK   43  A    between atoms: _101  and  _103
REMARK   44  A    between atoms: _103  and  _104
REMARK   45  A    between atoms: _103  and  _106
REMARK   46  A    between atoms: _108  and  _110
REMARK   47  A    between atoms: _110  and  _111
REMARK   48  A    between atoms: _110  and  _113
REMARK   49  A    between atoms: _113  and  _114
REMARK   50  A    between atoms: _119  and  _121
REMARK   51  A    between atoms: _121  and  _122
REMARK   52  A    between atoms: _125  and  _127
REMARK   53  A    between atoms: _127  and  _128
REMARK   54  A    between atoms: _127  and  _130
REMARK   55  A    between atoms: _130  and  _131
REMARK   56  A    between atoms: _133  and  _135
REMARK   57  A    between atoms: _135  and  _136
REMARK   58  A    between atoms: _139  and  _141
REMARK   59  A    between atoms: _141  and  _142
REMARK   60  A    between atoms: _141  and  _144
REMARK   61  A    between atoms: _144  and  _145
REMARK   62  A    between atoms: _155  and  _157
REMARK   63  A    between atoms: _157  and  _158
REMARK   64  A    between atoms: _157  and  _160
REMARK   65  A    between atoms: _160  and  _161
REMARK   66  A    between atoms: _164  and  _166
REMARK   67  A    between atoms: _166  and  _167
REMARK   68  A    between atoms: _166  and  _169
REMARK   69  A    between atoms: _169  and  _170
REMARK   70  A    between atoms: _175  and  _176
REMARK   71  A    between atoms: _178  and  _180
REMARK   72  A    between atoms: _180  and  _181
REMARK   73  A    between atoms: _180  and  _183
REMARK   74  A    between atoms: _183  and  _184
REMARK   75  A    between atoms: _184  and  _185
REMARK   76  A    between atoms: _185  and  _186
REMARK   77  A    between atoms: _195  and  _197
REMARK   78  A    between atoms: _197  and  _198
REMARK   79  A    between atoms: _197  and  _200
REMARK   80  A    between atoms: _200  and  _201
REMARK   81  A    between atoms: _204  and  _206
REMARK   82  A    between atoms: _206  and  _207
REMARK   83  A    between atoms: _206  and  _209
REMARK   84  A    between atoms: _209  and  _210
REMARK   85  A    between atoms: _210  and  _211
REMARK   86  A    between atoms: _211  and  _212
REMARK   87  A    between atoms: _212  and  _213
REMARK   88  A    between atoms: _217  and  _219
REMARK   89  A    between atoms: _219  and  _220
REMARK   90  A    between atoms: _219  and  _222
REMARK   91  A    between atoms: _222  and  _223
REMARK   92  A    between atoms: _223  and  _224
REMARK   93  A    between atoms: _229  and  _231
REMARK   94  A    between atoms: _231  and  _232
REMARK   95  A    between atoms: _231  and  _234
REMARK   96  A    between atoms: _234  and  _235
REMARK   97  A    between atoms: _235  and  _236
REMARK   98  A    between atoms: _236  and  _237
REMARK   99  A    between atoms: _246  and  _248
REMARK  100  A    between atoms: _248  and  _249
REMARK  101  A    between atoms: _248  and  _251
REMARK  102  A    between atoms: _251  and  _252
REMARK  103  A    between atoms: _252  and  _253
REMARK  104  A    between atoms: _258  and  _260
REMARK  105  A    between atoms: _260  and  _261
REMARK  106  A    between atoms: _260  and  _263
REMARK  107  A    between atoms: _263  and  _264
REMARK  108  A    between atoms: _267  and  _269
REMARK  109  A    between atoms: _269  and  _270
REMARK  110  A    between atoms: _269  and  _272
REMARK  111  A    between atoms: _272  and  _273
REMARK  112  A    between atoms: _273  and  _274
REMARK  113  A    between atoms: _279  and  _281
REMARK  114  A    between atoms: _281  and  _282
REMARK  115  A    between atoms: _281  and  _284
REMARK  116  A    between atoms: _284  and  _285
REMARK  117  A    between atoms: _288  and  _290
REMARK  118  A    between atoms: _290  and  _291
REMARK  119  A    between atoms: _290  and  _293
REMARK  120  A    between atoms: _293  and  _294
REMARK  121  A    between atoms: _300  and  _302
REMARK  122  A    between atoms: _302  and  _303
REMARK  123  A    between atoms: _302  and  _305
REMARK  124  A    between atoms: _305  and  _306
REMARK  125  A    between atoms: _309  and  _311
REMARK  126  A    between atoms: _311  and  _312
REMARK  127  A    between atoms: _311  and  _314
REMARK  128  A    between atoms: _317  and  _319
REMARK  129  A    between atoms: _319  and  _320
REMARK  130  A    between atoms: _319  and  _322
REMARK  131  A    between atoms: _322  and  _323
REMARK  132  A    between atoms: _328  and  _330
REMARK  133  A    between atoms: _341  and  _344
REMARK  134  A    between atoms: _344  and  _345
REMARK  135  A    between atoms: _345  and  _346
REMARK  136  A    between atoms: _351  and  _354
REMARK  137  A    between atoms: _354  and  _355
REMARK  138  A    between atoms: _365  and  _366
REMARK  139  A    between atoms: _374  and  _376
REMARK  140  A    between atoms: _376  and  _377
REMARK  141  A    between atoms: _376  and  _379
REMARK  142  A    between atoms: _379  and  _380
REMARK  143  A    between atoms: _383  and  _385
REMARK  144  A    between atoms: _385  and  _386
REMARK  145  A    between atoms: _385  and  _388
REMARK  146  A    between atoms: _388  and  _389
REMARK  147  A    between atoms: _394  and  _395
REMARK  148  A    between atoms: _397  and  _399
REMARK  149  A    between atoms: _399  and  _400
REMARK  150  A    between atoms: _399  and  _402
REMARK  151  A    between atoms: _402  and  _403
REMARK  152  A    between atoms: _409  and  _411
REMARK  153  A    between atoms: _411  and  _412
REMARK  154  A    between atoms: _411  and  _414
REMARK  155  A    between atoms: _414  and  _415
REMARK  156  A    between atoms: _420  and  _421
REMARK  157  A    between atoms: _423  and  _425
REMARK  158  A    between atoms: _425  and  _426
REMARK  159  A    between atoms: _425  and  _428
REMARK  160  A    between atoms: _428  and  _429
REMARK  161  A    between atoms: _429  and  _430
REMARK  162  A    between atoms: _430  and  _431
REMARK  163  A    between atoms: _440  and  _442
REMARK  164  A    between atoms: _442  and  _443
REMARK  165  A    between atoms: _442  and  _445
REMARK  166  A    between atoms: _445  and  _446
REMARK  167  A    between atoms: _449  and  _451
REMARK  168  A    between atoms: _451  and  _452
REMARK  169  A    between atoms: _454  and  _456
REMARK  170  A    between atoms: _456  and  _457
REMARK  171  A    between atoms: _456  and  _459
REMARK  172  A    between atoms: _459  and  _460
REMARK  173  A    between atoms: _466  and  _467
REMARK  174  A    between atoms: _472  and  _474
REMARK  175  A    between atoms: _474  and  _475
REMARK  176  A    between atoms: _477  and  _479
REMARK  177  A    between atoms: _479  and  _480
REMARK  178  A    between atoms: _479  and  _482
REMARK  179  A    between atoms: _482  and  _483
REMARK  180  A    between atoms: _489  and  _491
REMARK  181  A    between atoms: _491  and  _492
REMARK  182  A    between atoms: _491  and  _494
REMARK  183  A    between atoms: _494  and  _495
REMARK  184  A    between atoms: _500  and  _502
REMARK  185  A    between atoms: _502  and  _503
REMARK  186  A    between atoms: _502  and  _505
REMARK  187  A    between atoms: _505  and  _506
REMARK  188  A    between atoms: _506  and  _507
REMARK  189  A    between atoms: _507  and  _508
REMARK  190  A    between atoms: _508  and  ZN_790
REMARK  191  A    between atoms: _510  and  _512
REMARK  192  A    between atoms: _512  and  _513
REMARK  193  A    between atoms: _516  and  _518
REMARK  194  A    between atoms: _518  and  _519
REMARK  195  A    between atoms: _521  and  _523
REMARK  196  A    between atoms: _523  and  _524
REMARK  197  A    between atoms: _523  and  _526
REMARK  198  A    between atoms: _526  and  _527
REMARK  199  A    between atoms: _530  and  _532
REMARK  200  A    between atoms: _532  and  _533
REMARK  201  A    between atoms: _532  and  _535
REMARK  202  A    between atoms: _538  and  _540
REMARK  203  A    between atoms: _540  and  _541
REMARK  204  A    between atoms: _540  and  _543
REMARK  205  A    between atoms: _543  and  _544
REMARK  206  A    between atoms: _546  and  _548
REMARK  207  A    between atoms: _548  and  _549
REMARK  208  A    between atoms: _548  and  _551
REMARK  209  A    between atoms: _551  and  _552
REMARK  210  A    between atoms: _555  and  _557
REMARK  211  A    between atoms: _557  and  _558
REMARK  212  A    between atoms: _557  and  _560
REMARK  213  A    between atoms: _560  and  _561
REMARK  214  A    between atoms: _563  and  _565
REMARK  215  A    between atoms: _565  and  _566
REMARK  216  A    between atoms: _565  and  _568
REMARK  217  A    between atoms: _568  and  _569
REMARK  218  A    between atoms: _572  and  _574
REMARK  219  A    between atoms: _574  and  _575
REMARK  220  A    between atoms: _574  and  _577
REMARK  221  A    between atoms: _577  and  _578
REMARK  222  A    between atoms: _578  and  _579
REMARK  223  A    between atoms: _579  and  _580
REMARK  224  A    between atoms: _580  and  _581
REMARK  225  A    between atoms: _585  and  _587
REMARK  226  A    between atoms: _587  and  _588
REMARK  227  A    between atoms: _587  and  _590
REMARK  228  A    between atoms: _590  and  _591
REMARK  229  A    between atoms: _597  and  _599
REMARK  230  A    between atoms: _599  and  _600
REMARK  231  A    between atoms: _599  and  _602
REMARK  232  A    between atoms: _602  and  _603
REMARK  233  A    between atoms: _609  and  _611
REMARK  234  A    between atoms: _611  and  _612
REMARK  235  A    between atoms: _615  and  _617
REMARK  236  A    between atoms: _617  and  _618
REMARK  237  A    between atoms: _617  and  _620
REMARK  238  A    between atoms: _620  and  _621
REMARK  239  A    between atoms: _621  and  _622
REMARK  240  A    between atoms: _624  and  _626
REMARK  241  A    between atoms: _626  and  _627
REMARK  242  A    between atoms: _626  and  _629
REMARK  243  A    between atoms: _629  and  _630
REMARK  244  A    between atoms: _630  and  _631
REMARK  245  A    between atoms: _631  and  _632
REMARK  246  A    between atoms: _632  and  _633
REMARK  247  A    between atoms: _637  and  _639
REMARK  248  A    between atoms: _639  and  _640
REMARK  249  A    between atoms: _639  and  _642
REMARK  250  A    between atoms: _642  and  _643
REMARK  251  A    between atoms: _648  and  _649
REMARK  252  A    between atoms: _651  and  _653
REMARK  253  A    between atoms: _653  and  _654
REMARK  254  A    between atoms: _653  and  _656
REMARK  255  A    between atoms: _656  and  _657
REMARK  256  A    between atoms: _662  and  _664
REMARK  257  A    between atoms: _664  and  _665
REMARK  258  A    between atoms: _664  and  _667
REMARK  259  A    between atoms: _667  and  _668
REMARK  260  A    between atoms: _671  and  _673
REMARK  261  A    between atoms: _673  and  _674
REMARK  262  A    between atoms: _677  and  _679
REMARK  263  A    between atoms: _679  and  _680
REMARK  264  A    between atoms: _679  and  _682
REMARK  265  A    between atoms: _682  and  _683
REMARK  266  A    between atoms: _686  and  _688
REMARK  267  A    between atoms: _688  and  _689
REMARK  268  A    between atoms: _688  and  _691
REMARK  269  A    between atoms: _694  and  _696
REMARK  270  A    between atoms: _696  and  _697
REMARK  271  A    between atoms: _696  and  _699
REMARK  272  A    between atoms: _699  and  _700
REMARK  273  A    between atoms: _700  and  _701
REMARK  274  A    between atoms: _704  and  _706
REMARK  275  A    between atoms: _706  and  _707
REMARK  276  A    between atoms: _706  and  _709
REMARK  277  A    between atoms: _709  and  _710
REMARK  278  A    between atoms: _715  and  _716
REMARK  279  A    between atoms: _718  and  _720
REMARK  280  A    between atoms: _720  and  _721
REMARK  281  A    between atoms: _720  and  _723
REMARK  282  A    between atoms: _723  and  _724
REMARK  283  A    between atoms: _724  and  _725
REMARK  284  A    between atoms: _725  and  _726
REMARK  285  A    between atoms: _735  and  _737
REMARK  286  A    between atoms: _737  and  _738
REMARK  287  A    between atoms: _737  and  _740
REMARK  288  A    between atoms: _740  and  _741
REMARK  289  A    between atoms: _746  and  _747
REMARK  290  A    between atoms: _749  and  _751
REMARK  291  A    between atoms: _751  and  _752
REMARK  292  A    between atoms: _751  and  _754
REMARK  293  A    between atoms: _754  and  _755
REMARK  294  A    between atoms: _758  and  _760
REMARK  295  A    between atoms: _760  and  _761
REMARK  296  A    between atoms: _760  and  _763
REMARK  297  A    between atoms: _763  and  _764
REMARK  298  A    between atoms: _766  and  _768
REMARK  299  A    between atoms: _768  and  _769
REMARK  300  A    between atoms: _768  and  _771
REMARK  301  A    between atoms: _771  and  _772
REMARK  302  A    between atoms: _778  and  _780
REMARK  303  A    between atoms: _780  and  _781
REMARK  304  A    between atoms: _780  and  _783
REMARK  305  A    between atoms: _783  and  _784
REMARK  306  A    between atoms: _784  and  _785
REMARK                            x       y       z     vdW  Elec       q    Type
REMARK                         _______ _______ _______ _____ _____    ______ ____
ROOT
ATOM      1  O   HOH     1      20.890   6.914  18.866  0.00  0.00    +0.000 OA
ENDROOT
TORSDOF 0
REMARK  Name = ../refined-set-2016/4ca7/4ca7_pocket.pdb
REMARK  306 active torsions:
REMARK  status: ('A' for Active; 'I' for Inactive)
REMARK    1  A    between atoms: _1  and  _3
REMARK    2  A    between atoms: _3  and  _4
REMARK    3  A    between atoms: _3  and  _6
REMARK    4  A    between atoms: _6  and  _7
REMARK    5  A    between atoms: _7  and  _8
REMARK    6  A    between atoms: _8  and  _9
REMARK    7  A    between atoms: _9  and  _10
REMARK    8  A    between atoms: _14  and  _16
REMARK    9  A    between atoms: _16  and  _17
REMARK   10  A    between atoms: _16  and  _19
REMARK   11  A    between atoms: _19  and  _20
REMARK   12  A    between atoms: _20  and  _21
REMARK   13  A    between atoms: _24  and  _26
REMARK   14  A    between atoms: _26  and  _27
REMARK   15  A    between atoms: _26  and  _29
REMARK   16  A    between atoms: _29  and  _30
REMARK   17  A    between atoms: _30  and  _31
REMARK   18  A    between atoms: _34  and  _36
REMARK   19  A    between atoms: _36  and  _37
REMARK   20  A    between atoms: _36  and  _39
REMARK   21  A    between atoms: _39  and  _40
REMARK   22  A    between atoms: _45  and  _47
REMARK   23  A    between atoms: _47  and  _48
REMARK   24  A    between atoms: _47  and  _50
REMARK   25  A    between atoms: _50  and  _51
REMARK   26  A    between atoms: _61  and  _63
REMARK   27  A    between atoms: _63  and  _64
REMARK   28  A    between atoms: _63  and  _66
REMARK   29  A    between atoms: _66  and  _67
REMARK   30  A    between atoms: _67  and  _68
REMARK   31  A    between atoms: _73  and  _75
REMARK   32  A    between atoms: _75  and  _76
REMARK   33  A    between atoms: _75  and  _78
REMARK   34  A    between atoms: _78  and  _79
REMARK   35  A    between atoms: _79  and  _80
REMARK   36  A    between atoms: _85  and  _87
REMARK   37  A    between atoms: _87  and  _88
REMARK   38  A    between atoms: _87  and  _90
REMARK   39  A    between atoms: _90  and  _91
REMARK   40  A    between atoms: _93  and  _95
REMARK   41  A    between atoms: _95  and  _96
REMARK   42  A    between atoms: _95  and  _98
REMARK   43  A    between atoms: _101  and  _103
REMARK   44  A    between atoms: _103  and  _104
REMARK   45  A    between atoms: _103  and  _106
REMARK   46  A    between atoms: _108  and  _110
REMARK   47  A    between atoms: _110  and  _111
REMARK   48  A    between atoms: _110  and  _113
REMARK   49  A    between atoms: _113  and  _114
REMARK   50  A    between atoms: _119  and  _121
REMARK   51  A    between atoms: _121  and  _122
REMARK   52  A    between atoms: _125  and  _127
REMARK   53  A    between atoms: _127  and  _128
REMARK   54  A    between atoms: _127  and  _130
REMARK   55  A    between atoms: _130  and  _131
REMARK   56  A    between atoms: _133  and  _135
REMARK   57  A    between atoms: _135  and  _136
REMARK   58  A    between atoms: _139  and  _141
REMARK   59  A    between atoms: _141  and  _142
REMARK   60  A    between atoms: _141  and  _144
REMARK   61  A    between atoms: _144  and  _145
REMARK   62  A    between atoms: _155  and  _157
REMARK   63  A    between atoms: _157  and  _158
REMARK   64  A    between atoms: _157  and  _160
REMARK   65  A    between atoms: _160  and  _161
REMARK   66  A    between atoms: _164  and  _166
REMARK   67  A    between atoms: _166  and  _167
REMARK   68  A    between atoms: _166  and  _169
REMARK   69  A    between atoms: _169  and  _170
REMARK   70  A    between atoms: _175  and  _176
REMARK   71  A    between atoms: _178  and  _180
REMARK   72  A    between atoms: _180  and  _181
REMARK   73  A    between atoms: _180  and  _183
REMARK   74  A    between atoms: _183  and  _184
REMARK   75  A    between atoms: _184  and  _185
REMARK   76  A    between atoms: _185  and  _186
REMARK   77  A    between atoms: _195  and  _197
REMARK   78  A    between atoms: _197  and  _198
REMARK   79  A    between atoms: _197  and  _200
REMARK   80  A    between atoms: _200  and  _201
REMARK   81  A    between atoms: _204  and  _206
REMARK   82  A    between atoms: _206  and  _207
REMARK   83  A    between atoms: _206  and  _209
REMARK   84  A    between atoms: _209  and  _210
REMARK   85  A    between atoms: _210  and  _211
REMARK   86  A    between atoms: _211  and  _212
REMARK   87  A    between atoms: _212  and  _213
REMARK   88  A    between atoms: _217  and  _219
REMARK   89  A    between atoms: _219  and  _220
REMARK   90  A    between atoms: _219  and  _222
REMARK   91  A    between atoms: _222  and  _223
REMARK   92  A    between atoms: _223  and  _224
REMARK   93  A    between atoms: _229  and  _231
REMARK   94  A    between atoms: _231  and  _232
REMARK   95  A    between atoms: _231  and  _234
REMARK   96  A    between atoms: _234  and  _235
REMARK   97  A    between atoms: _235  and  _236
REMARK   98  A    between atoms: _236  and  _237
REMARK   99  A    between atoms: _246  and  _248
REMARK  100  A    between atoms: _248  and  _249
REMARK  101  A    between atoms: _248  and  _251
REMARK  102  A    between atoms: _251  and  _252
REMARK  103  A    between atoms: _252  and  _253
REMARK  104  A    between atoms: _258  and  _260
REMARK  105  A    between atoms: _260  and  _261
REMARK  106  A    between atoms: _260  and  _263
REMARK  107  A    between atoms: _263  and  _264
REMARK  108  A    between atoms: _267  and  _269
REMARK  109  A    between atoms: _269  and  _270
REMARK  110  A    between atoms: _269  and  _272
REMARK  111  A    between atoms: _272  and  _273
REMARK  112  A    between atoms: _273  and  _274
REMARK  113  A    between atoms: _279  and  _281
REMARK  114  A    between atoms: _281  and  _282
REMARK  115  A    between atoms: _281  and  _284
REMARK  116  A    between atoms: _284  and  _285
REMARK  117  A    between atoms: _288  and  _290
REMARK  118  A    between atoms: _290  and  _291
REMARK  119  A    between atoms: _290  and  _293
REMARK  120  A    between atoms: _293  and  _294
REMARK  121  A    between atoms: _300  and  _302
REMARK  122  A    between atoms: _302  and  _303
REMARK  123  A    between atoms: _302  and  _305
REMARK  124  A    between atoms: _305  and  _306
REMARK  125  A    between atoms: _309  and  _311
REMARK  126  A    between atoms: _311  and  _312
REMARK  127  A    between atoms: _311  and  _314
REMARK  128  A    between atoms: _317  and  _319
REMARK  129  A    between atoms: _319  and  _320
REMARK  130  A    between atoms: _319  and  _322
REMARK  131  A    between atoms: _322  and  _323
REMARK  132  A    between atoms: _328  and  _330
REMARK  133  A    between atoms: _341  and  _344
REMARK  134  A    between atoms: _344  and  _345
REMARK  135  A    between atoms: _345  and  _346
REMARK  136  A    between atoms: _351  and  _354
REMARK  137  A    between atoms: _354  and  _355
REMARK  138  A    between atoms: _365  and  _366
REMARK  139  A    between atoms: _374  and  _376
REMARK  140  A    between atoms: _376  and  _377
REMARK  141  A    between atoms: _376  and  _379
REMARK  142  A    between atoms: _379  and  _380
REMARK  143  A    between atoms: _383  and  _385
REMARK  144  A    between atoms: _385  and  _386
REMARK  145  A    between atoms: _385  and  _388
REMARK  146  A    between atoms: _388  and  _389
REMARK  147  A    between atoms: _394  and  _395
REMARK  148  A    between atoms: _397  and  _399
REMARK  149  A    between atoms: _399  and  _400
REMARK  150  A    between atoms: _399  and  _402
REMARK  151  A    between atoms: _402  and  _403
REMARK  152  A    between atoms: _409  and  _411
REMARK  153  A    between atoms: _411  and  _412
REMARK  154  A    between atoms: _411  and  _414
REMARK  155  A    between atoms: _414  and  _415
REMARK  156  A    between atoms: _420  and  _421
REMARK  157  A    between atoms: _423  and  _425
REMARK  158  A    between atoms: _425  and  _426
REMARK  159  A    between atoms: _425  and  _428
REMARK  160  A    between atoms: _428  and  _429
REMARK  161  A    between atoms: _429  and  _430
REMARK  162  A    between atoms: _430  and  _431
REMARK  163  A    between atoms: _440  and  _442
REMARK  164  A    between atoms: _442  and  _443
REMARK  165  A    between atoms: _442  and  _445
REMARK  166  A    between atoms: _445  and  _446
REMARK  167  A    between atoms: _449  and  _451
REMARK  168  A    between atoms: _451  and  _452
REMARK  169  A    between atoms: _454  and  _456
REMARK  170  A    between atoms: _456  and  _457
REMARK  171  A    between atoms: _456  and  _459
REMARK  172  A    between atoms: _459  and  _460
REMARK  173  A    between atoms: _466  and  _467
REMARK  174  A    between atoms: _472  and  _474
REMARK  175  A    between atoms: _474  and  _475
REMARK  176  A    between atoms: _477  and  _479
REMARK  177  A    between atoms: _479  and  _480
REMARK  178  A    between atoms: _479  and  _482
REMARK  179  A    between atoms: _482  and  _483
REMARK  180  A    between atoms: _489  and  _491
REMARK  181  A    between atoms: _491  and  _492
REMARK  182  A    between atoms: _491  and  _494
REMARK  183  A    between atoms: _494  and  _495
REMARK  184  A    between atoms: _500  and  _502
REMARK  185  A    between atoms: _502  and  _503
REMARK  186  A    between atoms: _502  and  _505
REMARK  187  A    between atoms: _505  and  _506
REMARK  188  A    between atoms: _506  and  _507
REMARK  189  A    between atoms: _507  and  _508
REMARK  190  A    between atoms: _508  and  ZN_790
REMARK  191  A    between atoms: _510  and  _512
REMARK  192  A    between atoms: _512  and  _513
REMARK  193  A    between atoms: _516  and  _518
REMARK  194  A    between atoms: _518  and  _519
REMARK  195  A    between atoms: _521  and  _523
REMARK  196  A    between atoms: _523  and  _524
REMARK  197  A    between atoms: _523  and  _526
REMARK  198  A    between atoms: _526  and  _527
REMARK  199  A    between atoms: _530  and  _532
REMARK  200  A    between atoms: _532  and  _533
REMARK  201  A    between atoms: _532  and  _535
REMARK  202  A    between atoms: _538  and  _540
REMARK  203  A    between atoms: _540  and  _541
REMARK  204  A    between atoms: _540  and  _543
REMARK  205  A    between atoms: _543  and  _544
REMARK  206  A    between atoms: _546  and  _548
REMARK  207  A    between atoms: _548  and  _549
REMARK  208  A    between atoms: _548  and  _551
REMARK  209  A    between atoms: _551  and  _552
REMARK  210  A    between atoms: _555  and  _557
REMARK  211  A    between atoms: _557  and  _558
REMARK  212  A    between atoms: _557  and  _560
REMARK  213  A    between atoms: _560  and  _561
REMARK  214  A    between atoms: _563  and  _565
REMARK  215  A    between atoms: _565  and  _566
REMARK  216  A    between atoms: _565  and  _568
REMARK  217  A    between atoms: _568  and  _569
REMARK  218  A    between atoms: _572  and  _574
REMARK  219  A    between atoms: _574  and  _575
REMARK  220  A    between atoms: _574  and  _577
REMARK  221  A    between atoms: _577  and  _578
REMARK  222  A    between atoms: _578  and  _579
REMARK  223  A    between atoms: _579  and  _580
REMARK  224  A    between atoms: _580  and  _581
REMARK  225  A    between atoms: _585  and  _587
REMARK  226  A    between atoms: _587  and  _588
REMARK  227  A    between atoms: _587  and  _590
REMARK  228  A    between atoms: _590  and  _591
REMARK  229  A    between atoms: _597  and  _599
REMARK  230  A    between atoms: _599  and  _600
REMARK  231  A    between atoms: _599  and  _602
REMARK  232  A    between atoms: _602  and  _603
REMARK  233  A    between atoms: _609  and  _611
REMARK  234  A    between atoms: _611  and  _612
REMARK  235  A    between atoms: _615  and  _617
REMARK  236  A    between atoms: _617  and  _618
REMARK  237  A    between atoms: _617  and  _620
REMARK  238  A    between atoms: _620  and  _621
REMARK  239  A    between atoms: _621  and  _622
REMARK  240  A    between atoms: _624  and  _626
REMARK  241  A    between atoms: _626  and  _627
REMARK  242  A    between atoms: _626  and  _629
REMARK  243  A    between atoms: _629  and  _630
REMARK  244  A    between atoms: _630  and  _631
REMARK  245  A    between atoms: _631  and  _632
REMARK  246  A    between atoms: _632  and  _633
REMARK  247  A    between atoms: _637  and  _639
REMARK  248  A    between atoms: _639  and  _640
REMARK  249  A    between atoms: _639  and  _642
REMARK  250  A    between atoms: _642  and  _643
REMARK  251  A    between atoms: _648  and  _649
REMARK  252  A    between atoms: _651  and  _653
REMARK  253  A    between atoms: _653  and  _654
REMARK  254  A    between atoms: _653  and  _656
REMARK  255  A    between atoms: _656  and  _657
REMARK  256  A    between atoms: _662  and  _664
REMARK  257  A    between atoms: _664  and  _665
REMARK  258  A    between atoms: _664  and  _667
REMARK  259  A    between atoms: _667  and  _668
REMARK  260  A    between atoms: _671  and  _673
REMARK  261  A    between atoms: _673  and  _674
REMARK  262  A    between atoms: _677  and  _679
REMARK  263  A    between atoms: _679  and  _680
REMARK  264  A    between atoms: _679  and  _682
REMARK  265  A    between atoms: _682  and  _683
REMARK  266  A    between atoms: _686  and  _688
REMARK  267  A    between atoms: _688  and  _689
REMARK  268  A    between atoms: _688  and  _691
REMARK  269  A    between atoms: _694  and  _696
REMARK  270  A    between atoms: _696  and  _697
REMARK  271  A    between atoms: _696  and  _699
REMARK  272  A    between atoms: _699  and  _700
REMARK  273  A    between atoms: _700  and  _701
REMARK  274  A    between atoms: _704  and  _706
REMARK  275  A    between atoms: _706  and  _707
REMARK  276  A    between atoms: _706  and  _709
REMARK  277  A    between atoms: _709  and  _710
REMARK  278  A    between atoms: _715  and  _716
REMARK  279  A    between atoms: _718  and  _720
REMARK  280  A    between atoms: _720  and  _721
REMARK  281  A    between atoms: _720  and  _723
REMARK  282  A    between atoms: _723  and  _724
REMARK  283  A    between atoms: _724  and  _725
REMARK  284  A    between atoms: _725  and  _726
REMARK  285  A    between atoms: _735  and  _737
REMARK  286  A    between atoms: _737  and  _738
REMARK  287  A    between atoms: _737  and  _740
REMARK  288  A    between atoms: _740  and  _741
REMARK  289  A    between atoms: _746  and  _747
REMARK  290  A    between atoms: _749  and  _751
REMARK  291  A    between atoms: _751  and  _752
REMARK  292  A    between atoms: _751  and  _754
REMARK  293  A    between atoms: _754  and  _755
REMARK  294  A    between atoms: _758  and  _760
REMARK  295  A    between atoms: _760  and  _761
REMARK  296  A    between atoms: _760  and  _763
REMARK  297  A    between atoms: _763  and  _764
REMARK  298  A    between atoms: _766  and  _768
REMARK  299  A    between atoms: _768  and  _769
REMARK  300  A    between atoms: _768  and  _771
REMARK  301  A    between atoms: _771  and  _772
REMARK  302  A    between atoms: _778  and  _780
REMARK  303  A    between atoms: _780  and  _781
REMARK  304  A    between atoms: _780  and  _783
REMARK  305  A    between atoms: _783  and  _784
REMARK  306  A    between atoms: _784  and  _785
REMARK                            x       y       z     vdW  Elec       q    Type
REMARK                         _______ _______ _______ _____ _____    ______ ____
ROOT
ATOM      1  O   HOH     1      22.270   7.765  16.363  0.00  0.00    +0.000 OA
ENDROOT
TORSDOF 0
REMARK  Name = ../refined-set-2016/4ca7/4ca7_pocket.pdb
REMARK  306 active torsions:
REMARK  status: ('A' for Active; 'I' for Inactive)
REMARK    1  A    between atoms: _1  and  _3
REMARK    2  A    between atoms: _3  and  _4
REMARK    3  A    between atoms: _3  and  _6
REMARK    4  A    between atoms: _6  and  _7
REMARK    5  A    between atoms: _7  and  _8
REMARK    6  A    between atoms: _8  and  _9
REMARK    7  A    between atoms: _9  and  _10
REMARK    8  A    between atoms: _14  and  _16
REMARK    9  A    between atoms: _16  and  _17
REMARK   10  A    between atoms: _16  and  _19
REMARK   11  A    between atoms: _19  and  _20
REMARK   12  A    between atoms: _20  and  _21
REMARK   13  A    between atoms: _24  and  _26
REMARK   14  A    between atoms: _26  and  _27
REMARK   15  A    between atoms: _26  and  _29
REMARK   16  A    between atoms: _29  and  _30
REMARK   17  A    between atoms: _30  and  _31
REMARK   18  A    between atoms: _34  and  _36
REMARK   19  A    between atoms: _36  and  _37
REMARK   20  A    between atoms: _36  and  _39
REMARK   21  A    between atoms: _39  and  _40
REMARK   22  A    between atoms: _45  and  _47
REMARK   23  A    between atoms: _47  and  _48
REMARK   24  A    between atoms: _47  and  _50
REMARK   25  A    between atoms: _50  and  _51
REMARK   26  A    between atoms: _61  and  _63
REMARK   27  A    between atoms: _63  and  _64
REMARK   28  A    between atoms: _63  and  _66
REMARK   29  A    between atoms: _66  and  _67
REMARK   30  A    between atoms: _67  and  _68
REMARK   31  A    between atoms: _73  and  _75
REMARK   32  A    between atoms: _75  and  _76
REMARK   33  A    between atoms: _75  and  _78
REMARK   34  A    between atoms: _78  and  _79
REMARK   35  A    between atoms: _79  and  _80
REMARK   36  A    between atoms: _85  and  _87
REMARK   37  A    between atoms: _87  and  _88
REMARK   38  A    between atoms: _87  and  _90
REMARK   39  A    between atoms: _90  and  _91
REMARK   40  A    between atoms: _93  and  _95
REMARK   41  A    between atoms: _95  and  _96
REMARK   42  A    between atoms: _95  and  _98
REMARK   43  A    between atoms: _101  and  _103
REMARK   44  A    between atoms: _103  and  _104
REMARK   45  A    between atoms: _103  and  _106
REMARK   46  A    between atoms: _108  and  _110
REMARK   47  A    between atoms: _110  and  _111
REMARK   48  A    between atoms: _110  and  _113
REMARK   49  A    between atoms: _113  and  _114
REMARK   50  A    between atoms: _119  and  _121
REMARK   51  A    between atoms: _121  and  _122
REMARK   52  A    between atoms: _125  and  _127
REMARK   53  A    between atoms: _127  and  _128
REMARK   54  A    between atoms: _127  and  _130
REMARK   55  A    between atoms: _130  and  _131
REMARK   56  A    between atoms: _133  and  _135
REMARK   57  A    between atoms: _135  and  _136
REMARK   58  A    between atoms: _139  and  _141
REMARK   59  A    between atoms: _141  and  _142
REMARK   60  A    between atoms: _141  and  _144
REMARK   61  A    between atoms: _144  and  _145
REMARK   62  A    between atoms: _155  and  _157
REMARK   63  A    between atoms: _157  and  _158
REMARK   64  A    between atoms: _157  and  _160
REMARK   65  A    between atoms: _160  and  _161
REMARK   66  A    between atoms: _164  and  _166
REMARK   67  A    between atoms: _166  and  _167
REMARK   68  A    between atoms: _166  and  _169
REMARK   69  A    between atoms: _169  and  _170
REMARK   70  A    between atoms: _175  and  _176
REMARK   71  A    between atoms: _178  and  _180
REMARK   72  A    between atoms: _180  and  _181
REMARK   73  A    between atoms: _180  and  _183
REMARK   74  A    between atoms: _183  and  _184
REMARK   75  A    between atoms: _184  and  _185
REMARK   76  A    between atoms: _185  and  _186
REMARK   77  A    between atoms: _195  and  _197
REMARK   78  A    between atoms: _197  and  _198
REMARK   79  A    between atoms: _197  and  _200
REMARK   80  A    between atoms: _200  and  _201
REMARK   81  A    between atoms: _204  and  _206
REMARK   82  A    between atoms: _206  and  _207
REMARK   83  A    between atoms: _206  and  _209
REMARK   84  A    between atoms: _209  and  _210
REMARK   85  A    between atoms: _210  and  _211
REMARK   86  A    between atoms: _211  and  _212
REMARK   87  A    between atoms: _212  and  _213
REMARK   88  A    between atoms: _217  and  _219
REMARK   89  A    between atoms: _219  and  _220
REMARK   90  A    between atoms: _219  and  _222
REMARK   91  A    between atoms: _222  and  _223
REMARK   92  A    between atoms: _223  and  _224
REMARK   93  A    between atoms: _229  and  _231
REMARK   94  A    between atoms: _231  and  _232
REMARK   95  A    between atoms: _231  and  _234
REMARK   96  A    between atoms: _234  and  _235
REMARK   97  A    between atoms: _235  and  _236
REMARK   98  A    between atoms: _236  and  _237
REMARK   99  A    between atoms: _246  and  _248
REMARK  100  A    between atoms: _248  and  _249
REMARK  101  A    between atoms: _248  and  _251
REMARK  102  A    between atoms: _251  and  _252
REMARK  103  A    between atoms: _252  and  _253
REMARK  104  A    between atoms: _258  and  _260
REMARK  105  A    between atoms: _260  and  _261
REMARK  106  A    between atoms: _260  and  _263
REMARK  107  A    between atoms: _263  and  _264
REMARK  108  A    between atoms: _267  and  _269
REMARK  109  A    between atoms: _269  and  _270
REMARK  110  A    between atoms: _269  and  _272
REMARK  111  A    between atoms: _272  and  _273
REMARK  112  A    between atoms: _273  and  _274
REMARK  113  A    between atoms: _279  and  _281
REMARK  114  A    between atoms: _281  and  _282
REMARK  115  A    between atoms: _281  and  _284
REMARK  116  A    between atoms: _284  and  _285
REMARK  117  A    between atoms: _288  and  _290
REMARK  118  A    between atoms: _290  and  _291
REMARK  119  A    between atoms: _290  and  _293
REMARK  120  A    between atoms: _293  and  _294
REMARK  121  A    between atoms: _300  and  _302
REMARK  122  A    between atoms: _302  and  _303
REMARK  123  A    between atoms: _302  and  _305
REMARK  124  A    between atoms: _305  and  _306
REMARK  125  A    between atoms: _309  and  _311
REMARK  126  A    between atoms: _311  and  _312
REMARK  127  A    between atoms: _311  and  _314
REMARK  128  A    between atoms: _317  and  _319
REMARK  129  A    between atoms: _319  and  _320
REMARK  130  A    between atoms: _319  and  _322
REMARK  131  A    between atoms: _322  and  _323
REMARK  132  A    between atoms: _328  and  _330
REMARK  133  A    between atoms: _341  and  _344
REMARK  134  A    between atoms: _344  and  _345
REMARK  135  A    between atoms: _345  and  _346
REMARK  136  A    between atoms: _351  and  _354
REMARK  137  A    between atoms: _354  and  _355
REMARK  138  A    between atoms: _365  and  _366
REMARK  139  A    between atoms: _374  and  _376
REMARK  140  A    between atoms: _376  and  _377
REMARK  141  A    between atoms: _376  and  _379
REMARK  142  A    between atoms: _379  and  _380
REMARK  143  A    between atoms: _383  and  _385
REMARK  144  A    between atoms: _385  and  _386
REMARK  145  A    between atoms: _385  and  _388
REMARK  146  A    between atoms: _388  and  _389
REMARK  147  A    between atoms: _394  and  _395
REMARK  148  A    between atoms: _397  and  _399
REMARK  149  A    between atoms: _399  and  _400
REMARK  150  A    between atoms: _399  and  _402
REMARK  151  A    between atoms: _402  and  _403
REMARK  152  A    between atoms: _409  and  _411
REMARK  153  A    between atoms: _411  and  _412
REMARK  154  A    between atoms: _411  and  _414
REMARK  155  A    between atoms: _414  and  _415
REMARK  156  A    between atoms: _420  and  _421
REMARK  157  A    between atoms: _423  and  _425
REMARK  158  A    between atoms: _425  and  _426
REMARK  159  A    between atoms: _425  and  _428
REMARK  160  A    between atoms: _428  and  _429
REMARK  161  A    between atoms: _429  and  _430
REMARK  162  A    between atoms: _430  and  _431
REMARK  163  A    between atoms: _440  and  _442
REMARK  164  A    between atoms: _442  and  _443
REMARK  165  A    between atoms: _442  and  _445
REMARK  166  A    between atoms: _445  and  _446
REMARK  167  A    between atoms: _449  and  _451
REMARK  168  A    between atoms: _451  and  _452
REMARK  169  A    between atoms: _454  and  _456
REMARK  170  A    between atoms: _456  and  _457
REMARK  171  A    between atoms: _456  and  _459
REMARK  172  A    between atoms: _459  and  _460
REMARK  173  A    between atoms: _466  and  _467
REMARK  174  A    between atoms: _472  and  _474
REMARK  175  A    between atoms: _474  and  _475
REMARK  176  A    between atoms: _477  and  _479
REMARK  177  A    between atoms: _479  and  _480
REMARK  178  A    between atoms: _479  and  _482
REMARK  179  A    between atoms: _482  and  _483
REMARK  180  A    between atoms: _489  and  _491
REMARK  181  A    between atoms: _491  and  _492
REMARK  182  A    between atoms: _491  and  _494
REMARK  183  A    between atoms: _494  and  _495
REMARK  184  A    between atoms: _500  and  _502
REMARK  185  A    between atoms: _502  and  _503
REMARK  186  A    between atoms: _502  and  _505
REMARK  187  A    between atoms: _505  and  _506
REMARK  188  A    between atoms: _506  and  _507
REMARK  189  A    between atoms: _507  and  _508
REMARK  190  A    between atoms: _508  and  ZN_790
REMARK  191  A    between atoms: _510  and  _512
REMARK  192  A    between atoms: _512  and  _513
REMARK  193  A    between atoms: _516  and  _518
REMARK  194  A    between atoms: _518  and  _519
REMARK  195  A    between atoms: _521  and  _523
REMARK  196  A    between atoms: _523  and  _524
REMARK  197  A    between atoms: _523  and  _526
REMARK  198  A    between atoms: _526  and  _527
REMARK  199  A    between atoms: _530  and  _532
REMARK  200  A    between atoms: _532  and  _533
REMARK  201  A    between atoms: _532  and  _535
REMARK  202  A    between atoms: _538  and  _540
REMARK  203  A    between atoms: _540  and  _541
REMARK  204  A    between atoms: _540  and  _543
REMARK  205  A    between atoms: _543  and  _544
REMARK  206  A    between atoms: _546  and  _548
REMARK  207  A    between atoms: _548  and  _549
REMARK  208  A    between atoms: _548  and  _551
REMARK  209  A    between atoms: _551  and  _552
REMARK  210  A    between atoms: _555  and  _557
REMARK  211  A    between atoms: _557  and  _558
REMARK  212  A    between atoms: _557  and  _560
REMARK  213  A    between atoms: _560  and  _561
REMARK  214  A    between atoms: _563  and  _565
REMARK  215  A    between atoms: _565  and  _566
REMARK  216  A    between atoms: _565  and  _568
REMARK  217  A    between atoms: _568  and  _569
REMARK  218  A    between atoms: _572  and  _574
REMARK  219  A    between atoms: _574  and  _575
REMARK  220  A    between atoms: _574  and  _577
REMARK  221  A    between atoms: _577  and  _578
REMARK  222  A    between atoms: _578  and  _579
REMARK  223  A    between atoms: _579  and  _580
REMARK  224  A    between atoms: _580  and  _581
REMARK  225  A    between atoms: _585  and  _587
REMARK  226  A    between atoms: _587  and  _588
REMARK  227  A    between atoms: _587  and  _590
REMARK  228  A    between atoms: _590  and  _591
REMARK  229  A    between atoms: _597  and  _599
REMARK  230  A    between atoms: _599  and  _600
REMARK  231  A    between atoms: _599  and  _602
REMARK  232  A    between atoms: _602  and  _603
REMARK  233  A    between atoms: _609  and  _611
REMARK  234  A    between atoms: _611  and  _612
REMARK  235  A    between atoms: _615  and  _617
REMARK  236  A    between atoms: _617  and  _618
REMARK  237  A    between atoms: _617  and  _620
REMARK  238  A    between atoms: _620  and  _621
REMARK  239  A    between atoms: _621  and  _622
REMARK  240  A    between atoms: _624  and  _626
REMARK  241  A    between atoms: _626  and  _627
REMARK  242  A    between atoms: _626  and  _629
REMARK  243  A    between atoms: _629  and  _630
REMARK  244  A    between atoms: _630  and  _631
REMARK  245  A    between atoms: _631  and  _632
REMARK  246  A    between atoms: _632  and  _633
REMARK  247  A    between atoms: _637  and  _639
REMARK  248  A    between atoms: _639  and  _640
REMARK  249  A    between atoms: _639  and  _642
REMARK  250  A    between atoms: _642  and  _643
REMARK  251  A    between atoms: _648  and  _649
REMARK  252  A    between atoms: _651  and  _653
REMARK  253  A    between atoms: _653  and  _654
REMARK  254  A    between atoms: _653  and  _656
REMARK  255  A    between atoms: _656  and  _657
REMARK  256  A    between atoms: _662  and  _664
REMARK  257  A    between atoms: _664  and  _665
REMARK  258  A    between atoms: _664  and  _667
REMARK  259  A    between atoms: _667  and  _668
REMARK  260  A    between atoms: _671  and  _673
REMARK  261  A    between atoms: _673  and  _674
REMARK  262  A    between atoms: _677  and  _679
REMARK  263  A    between atoms: _679  and  _680
REMARK  264  A    between atoms: _679  and  _682
REMARK  265  A    between atoms: _682  and  _683
REMARK  266  A    between atoms: _686  and  _688
REMARK  267  A    between atoms: _688  and  _689
REMARK  268  A    between atoms: _688  and  _691
REMARK  269  A    between atoms: _694  and  _696
REMARK  270  A    between atoms: _696  and  _697
REMARK  271  A    between atoms: _696  and  _699
REMARK  272  A    between atoms: _699  and  _700
REMARK  273  A    between atoms: _700  and  _701
REMARK  274  A    between atoms: _704  and  _706
REMARK  275  A    between atoms: _706  and  _707
REMARK  276  A    between atoms: _706  and  _709
REMARK  277  A    between atoms: _709  and  _710
REMARK  278  A    between atoms: _715  and  _716
REMARK  279  A    between atoms: _718  and  _720
REMARK  280  A    between atoms: _720  and  _721
REMARK  281  A    between atoms: _720  and  _723
REMARK  282  A    between atoms: _723  and  _724
REMARK  283  A    between atoms: _724  and  _725
REMARK  284  A    between atoms: _725  and  _726
REMARK  285  A    between atoms: _735  and  _737
REMARK  286  A    between atoms: _737  and  _738
REMARK  287  A    between atoms: _737  and  _740
REMARK  288  A    between atoms: _740  and  _741
REMARK  289  A    between atoms: _746  and  _747
REMARK  290  A    between atoms: _749  and  _751
REMARK  291  A    between atoms: _751  and  _752
REMARK  292  A    between atoms: _751  and  _754
REMARK  293  A    between atoms: _754  and  _755
REMARK  294  A    between atoms: _758  and  _760
REMARK  295  A    between atoms: _760  and  _761
REMARK  296  A    between atoms: _760  and  _763
REMARK  297  A    between atoms: _763  and  _764
REMARK  298  A    between atoms: _766  and  _768
REMARK  299  A    between atoms: _768  and  _769
REMARK  300  A    between atoms: _768  and  _771
REMARK  301  A    between atoms: _771  and  _772
REMARK  302  A    between atoms: _778  and  _780
REMARK  303  A    between atoms: _780  and  _781
REMARK  304  A    between atoms: _780  and  _783
REMARK  305  A    between atoms: _783  and  _784
REMARK  306  A    between atoms: _784  and  _785
REMARK                            x       y       z     vdW  Elec       q    Type
REMARK                         _______ _______ _______ _____ _____    ______ ____
ROOT
ATOM      1  O   HOH     1      23.415  11.834  14.793  0.00  0.00    +0.000 OA
ENDROOT
TORSDOF 0
REMARK  Name = ../refined-set-2016/4ca7/4ca7_pocket.pdb
REMARK  306 active torsions:
REMARK  status: ('A' for Active; 'I' for Inactive)
REMARK    1  A    between atoms: _1  and  _3
REMARK    2  A    between atoms: _3  and  _4
REMARK    3  A    between atoms: _3  and  _6
REMARK    4  A    between atoms: _6  and  _7
REMARK    5  A    between atoms: _7  and  _8
REMARK    6  A    between atoms: _8  and  _9
REMARK    7  A    between atoms: _9  and  _10
REMARK    8  A    between atoms: _14  and  _16
REMARK    9  A    between atoms: _16  and  _17
REMARK   10  A    between atoms: _16  and  _19
REMARK   11  A    between atoms: _19  and  _20
REMARK   12  A    between atoms: _20  and  _21
REMARK   13  A    between atoms: _24  and  _26
REMARK   14  A    between atoms: _26  and  _27
REMARK   15  A    between atoms: _26  and  _29
REMARK   16  A    between atoms: _29  and  _30
REMARK   17  A    between atoms: _30  and  _31
REMARK   18  A    between atoms: _34  and  _36
REMARK   19  A    between atoms: _36  and  _37
REMARK   20  A    between atoms: _36  and  _39
REMARK   21  A    between atoms: _39  and  _40
REMARK   22  A    between atoms: _45  and  _47
REMARK   23  A    between atoms: _47  and  _48
REMARK   24  A    between atoms: _47  and  _50
REMARK   25  A    between atoms: _50  and  _51
REMARK   26  A    between atoms: _61  and  _63
REMARK   27  A    between atoms: _63  and  _64
REMARK   28  A    between atoms: _63  and  _66
REMARK   29  A    between atoms: _66  and  _67
REMARK   30  A    between atoms: _67  and  _68
REMARK   31  A    between atoms: _73  and  _75
REMARK   32  A    between atoms: _75  and  _76
REMARK   33  A    between atoms: _75  and  _78
REMARK   34  A    between atoms: _78  and  _79
REMARK   35  A    between atoms: _79  and  _80
REMARK   36  A    between atoms: _85  and  _87
REMARK   37  A    between atoms: _87  and  _88
REMARK   38  A    between atoms: _87  and  _90
REMARK   39  A    between atoms: _90  and  _91
REMARK   40  A    between atoms: _93  and  _95
REMARK   41  A    between atoms: _95  and  _96
REMARK   42  A    between atoms: _95  and  _98
REMARK   43  A    between atoms: _101  and  _103
REMARK   44  A    between atoms: _103  and  _104
REMARK   45  A    between atoms: _103  and  _106
REMARK   46  A    between atoms: _108  and  _110
REMARK   47  A    between atoms: _110  and  _111
REMARK   48  A    between atoms: _110  and  _113
REMARK   49  A    between atoms: _113  and  _114
REMARK   50  A    between atoms: _119  and  _121
REMARK   51  A    between atoms: _121  and  _122
REMARK   52  A    between atoms: _125  and  _127
REMARK   53  A    between atoms: _127  and  _128
REMARK   54  A    between atoms: _127  and  _130
REMARK   55  A    between atoms: _130  and  _131
REMARK   56  A    between atoms: _133  and  _135
REMARK   57  A    between atoms: _135  and  _136
REMARK   58  A    between atoms: _139  and  _141
REMARK   59  A    between atoms: _141  and  _142
REMARK   60  A    between atoms: _141  and  _144
REMARK   61  A    between atoms: _144  and  _145
REMARK   62  A    between atoms: _155  and  _157
REMARK   63  A    between atoms: _157  and  _158
REMARK   64  A    between atoms: _157  and  _160
REMARK   65  A    between atoms: _160  and  _161
REMARK   66  A    between atoms: _164  and  _166
REMARK   67  A    between atoms: _166  and  _167
REMARK   68  A    between atoms: _166  and  _169
REMARK   69  A    between atoms: _169  and  _170
REMARK   70  A    between atoms: _175  and  _176
REMARK   71  A    between atoms: _178  and  _180
REMARK   72  A    between atoms: _180  and  _181
REMARK   73  A    between atoms: _180  and  _183
REMARK   74  A    between atoms: _183  and  _184
REMARK   75  A    between atoms: _184  and  _185
REMARK   76  A    between atoms: _185  and  _186
REMARK   77  A    between atoms: _195  and  _197
REMARK   78  A    between atoms: _197  and  _198
REMARK   79  A    between atoms: _197  and  _200
REMARK   80  A    between atoms: _200  and  _201
REMARK   81  A    between atoms: _204  and  _206
REMARK   82  A    between atoms: _206  and  _207
REMARK   83  A    between atoms: _206  and  _209
REMARK   84  A    between atoms: _209  and  _210
REMARK   85  A    between atoms: _210  and  _211
REMARK   86  A    between atoms: _211  and  _212
REMARK   87  A    between atoms: _212  and  _213
REMARK   88  A    between atoms: _217  and  _219
REMARK   89  A    between atoms: _219  and  _220
REMARK   90  A    between atoms: _219  and  _222
REMARK   91  A    between atoms: _222  and  _223
REMARK   92  A    between atoms: _223  and  _224
REMARK   93  A    between atoms: _229  and  _231
REMARK   94  A    between atoms: _231  and  _232
REMARK   95  A    between atoms: _231  and  _234
REMARK   96  A    between atoms: _234  and  _235
REMARK   97  A    between atoms: _235  and  _236
REMARK   98  A    between atoms: _236  and  _237
REMARK   99  A    between atoms: _246  and  _248
REMARK  100  A    between atoms: _248  and  _249
REMARK  101  A    between atoms: _248  and  _251
REMARK  102  A    between atoms: _251  and  _252
REMARK  103  A    between atoms: _252  and  _253
REMARK  104  A    between atoms: _258  and  _260
REMARK  105  A    between atoms: _260  and  _261
REMARK  106  A    between atoms: _260  and  _263
REMARK  107  A    between atoms: _263  and  _264
REMARK  108  A    between atoms: _267  and  _269
REMARK  109  A    between atoms: _269  and  _270
REMARK  110  A    between atoms: _269  and  _272
REMARK  111  A    between atoms: _272  and  _273
REMARK  112  A    between atoms: _273  and  _274
REMARK  113  A    between atoms: _279  and  _281
REMARK  114  A    between atoms: _281  and  _282
REMARK  115  A    between atoms: _281  and  _284
REMARK  116  A    between atoms: _284  and  _285
REMARK  117  A    between atoms: _288  and  _290
REMARK  118  A    between atoms: _290  and  _291
REMARK  119  A    between atoms: _290  and  _293
REMARK  120  A    between atoms: _293  and  _294
REMARK  121  A    between atoms: _300  and  _302
REMARK  122  A    between atoms: _302  and  _303
REMARK  123  A    between atoms: _302  and  _305
REMARK  124  A    between atoms: _305  and  _306
REMARK  125  A    between atoms: _309  and  _311
REMARK  126  A    between atoms: _311  and  _312
REMARK  127  A    between atoms: _311  and  _314
REMARK  128  A    between atoms: _317  and  _319
REMARK  129  A    between atoms: _319  and  _320
REMARK  130  A    between atoms: _319  and  _322
REMARK  131  A    between atoms: _322  and  _323
REMARK  132  A    between atoms: _328  and  _330
REMARK  133  A    between atoms: _341  and  _344
REMARK  134  A    between atoms: _344  and  _345
REMARK  135  A    between atoms: _345  and  _346
REMARK  136  A    between atoms: _351  and  _354
REMARK  137  A    between atoms: _354  and  _355
REMARK  138  A    between atoms: _365  and  _366
REMARK  139  A    between atoms: _374  and  _376
REMARK  140  A    between atoms: _376  and  _377
REMARK  141  A    between atoms: _376  and  _379
REMARK  142  A    between atoms: _379  and  _380
REMARK  143  A    between atoms: _383  and  _385
REMARK  144  A    between atoms: _385  and  _386
REMARK  145  A    between atoms: _385  and  _388
REMARK  146  A    between atoms: _388  and  _389
REMARK  147  A    between atoms: _394  and  _395
REMARK  148  A    between atoms: _397  and  _399
REMARK  149  A    between atoms: _399  and  _400
REMARK  150  A    between atoms: _399  and  _402
REMARK  151  A    between atoms: _402  and  _403
REMARK  152  A    between atoms: _409  and  _411
REMARK  153  A    between atoms: _411  and  _412
REMARK  154  A    between atoms: _411  and  _414
REMARK  155  A    between atoms: _414  and  _415
REMARK  156  A    between atoms: _420  and  _421
REMARK  157  A    between atoms: _423  and  _425
REMARK  158  A    between atoms: _425  and  _426
REMARK  159  A    between atoms: _425  and  _428
REMARK  160  A    between atoms: _428  and  _429
REMARK  161  A    between atoms: _429  and  _430
REMARK  162  A    between atoms: _430  and  _431
REMARK  163  A    between atoms: _440  and  _442
REMARK  164  A    between atoms: _442  and  _443
REMARK  165  A    between atoms: _442  and  _445
REMARK  166  A    between atoms: _445  and  _446
REMARK  167  A    between atoms: _449  and  _451
REMARK  168  A    between atoms: _451  and  _452
REMARK  169  A    between atoms: _454  and  _456
REMARK  170  A    between atoms: _456  and  _457
REMARK  171  A    between atoms: _456  and  _459
REMARK  172  A    between atoms: _459  and  _460
REMARK  173  A    between atoms: _466  and  _467
REMARK  174  A    between atoms: _472  and  _474
REMARK  175  A    between atoms: _474  and  _475
REMARK  176  A    between atoms: _477  and  _479
REMARK  177  A    between atoms: _479  and  _480
REMARK  178  A    between atoms: _479  and  _482
REMARK  179  A    between atoms: _482  and  _483
REMARK  180  A    between atoms: _489  and  _491
REMARK  181  A    between atoms: _491  and  _492
REMARK  182  A    between atoms: _491  and  _494
REMARK  183  A    between atoms: _494  and  _495
REMARK  184  A    between atoms: _500  and  _502
REMARK  185  A    between atoms: _502  and  _503
REMARK  186  A    between atoms: _502  and  _505
REMARK  187  A    between atoms: _505  and  _506
REMARK  188  A    between atoms: _506  and  _507
REMARK  189  A    between atoms: _507  and  _508
REMARK  190  A    between atoms: _508  and  ZN_790
REMARK  191  A    between atoms: _510  and  _512
REMARK  192  A    between atoms: _512  and  _513
REMARK  193  A    between atoms: _516  and  _518
REMARK  194  A    between atoms: _518  and  _519
REMARK  195  A    between atoms: _521  and  _523
REMARK  196  A    between atoms: _523  and  _524
REMARK  197  A    between atoms: _523  and  _526
REMARK  198  A    between atoms: _526  and  _527
REMARK  199  A    between atoms: _530  and  _532
REMARK  200  A    between atoms: _532  and  _533
REMARK  201  A    between atoms: _532  and  _535
REMARK  202  A    between atoms: _538  and  _540
REMARK  203  A    between atoms: _540  and  _541
REMARK  204  A    between atoms: _540  and  _543
REMARK  205  A    between atoms: _543  and  _544
REMARK  206  A    between atoms: _546  and  _548
REMARK  207  A    between atoms: _548  and  _549
REMARK  208  A    between atoms: _548  and  _551
REMARK  209  A    between atoms: _551  and  _552
REMARK  210  A    between atoms: _555  and  _557
REMARK  211  A    between atoms: _557  and  _558
REMARK  212  A    between atoms: _557  and  _560
REMARK  213  A    between atoms: _560  and  _561
REMARK  214  A    between atoms: _563  and  _565
REMARK  215  A    between atoms: _565  and  _566
REMARK  216  A    between atoms: _565  and  _568
REMARK  217  A    between atoms: _568  and  _569
REMARK  218  A    between atoms: _572  and  _574
REMARK  219  A    between atoms: _574  and  _575
REMARK  220  A    between atoms: _574  and  _577
REMARK  221  A    between atoms: _577  and  _578
REMARK  222  A    between atoms: _578  and  _579
REMARK  223  A    between atoms: _579  and  _580
REMARK  224  A    between atoms: _580  and  _581
REMARK  225  A    between atoms: _585  and  _587
REMARK  226  A    between atoms: _587  and  _588
REMARK  227  A    between atoms: _587  and  _590
REMARK  228  A    between atoms: _590  and  _591
REMARK  229  A    between atoms: _597  and  _599
REMARK  230  A    between atoms: _599  and  _600
REMARK  231  A    between atoms: _599  and  _602
REMARK  232  A    between atoms: _602  and  _603
REMARK  233  A    between atoms: _609  and  _611
REMARK  234  A    between atoms: _611  and  _612
REMARK  235  A    between atoms: _615  and  _617
REMARK  236  A    between atoms: _617  and  _618
REMARK  237  A    between atoms: _617  and  _620
REMARK  238  A    between atoms: _620  and  _621
REMARK  239  A    between atoms: _621  and  _622
REMARK  240  A    between atoms: _624  and  _626
REMARK  241  A    between atoms: _626  and  _627
REMARK  242  A    between atoms: _626  and  _629
REMARK  243  A    between atoms: _629  and  _630
REMARK  244  A    between atoms: _630  and  _631
REMARK  245  A    between atoms: _631  and  _632
REMARK  246  A    between atoms: _632  and  _633
REMARK  247  A    between atoms: _637  and  _639
REMARK  248  A    between atoms: _639  and  _640
REMARK  249  A    between atoms: _639  and  _642
REMARK  250  A    between atoms: _642  and  _643
REMARK  251  A    between atoms: _648  and  _649
REMARK  252  A    between atoms: _651  and  _653
REMARK  253  A    between atoms: _653  and  _654
REMARK  254  A    between atoms: _653  and  _656
REMARK  255  A    between atoms: _656  and  _657
REMARK  256  A    between atoms: _662  and  _664
REMARK  257  A    between atoms: _664  and  _665
REMARK  258  A    between atoms: _664  and  _667
REMARK  259  A    between atoms: _667  and  _668
REMARK  260  A    between atoms: _671  and  _673
REMARK  261  A    between atoms: _673  and  _674
REMARK  262  A    between atoms: _677  and  _679
REMARK  263  A    between atoms: _679  and  _680
REMARK  264  A    between atoms: _679  and  _682
REMARK  265  A    between atoms: _682  and  _683
REMARK  266  A    between atoms: _686  and  _688
REMARK  267  A    between atoms: _688  and  _689
REMARK  268  A    between atoms: _688  and  _691
REMARK  269  A    between atoms: _694  and  _696
REMARK  270  A    between atoms: _696  and  _697
REMARK  271  A    between atoms: _696  and  _699
REMARK  272  A    between atoms: _699  and  _700
REMARK  273  A    between atoms: _700  and  _701
REMARK  274  A    between atoms: _704  and  _706
REMARK  275  A    between atoms: _706  and  _707
REMARK  276  A    between atoms: _706  and  _709
REMARK  277  A    between atoms: _709  and  _710
REMARK  278  A    between atoms: _715  and  _716
REMARK  279  A    between atoms: _718  and  _720
REMARK  280  A    between atoms: _720  and  _721
REMARK  281  A    between atoms: _720  and  _723
REMARK  282  A    between atoms: _723  and  _724
REMARK  283  A    between atoms: _724  and  _725
REMARK  284  A    between atoms: _725  and  _726
REMARK  285  A    between atoms: _735  and  _737
REMARK  286  A    between atoms: _737  and  _738
REMARK  287  A    between atoms: _737  and  _740
REMARK  288  A    between atoms: _740  and  _741
REMARK  289  A    between atoms: _746  and  _747
REMARK  290  A    between atoms: _749  and  _751
REMARK  291  A    between atoms: _751  and  _752
REMARK  292  A    between atoms: _751  and  _754
REMARK  293  A    between atoms: _754  and  _755
REMARK  294  A    between atoms: _758  and  _760
REMARK  295  A    between atoms: _760  and  _761
REMARK  296  A    between atoms: _760  and  _763
REMARK  297  A    between atoms: _763  and  _764
REMARK  298  A    between atoms: _766  and  _768
REMARK  299  A    between atoms: _768  and  _769
REMARK  300  A    between atoms: _768  and  _771
REMARK  301  A    between atoms: _771  and  _772
REMARK  302  A    between atoms: _778  and  _780
REMARK  303  A    between atoms: _780  and  _781
REMARK  304  A    between atoms: _780  and  _783
REMARK  305  A    between atoms: _783  and  _784
REMARK  306  A    between atoms: _784  and  _785
REMARK                            x       y       z     vdW  Elec       q    Type
REMARK                         _______ _______ _______ _____ _____    ______ ____
ROOT
ATOM      1  O   HOH     1      23.799   5.135   4.344  0.00  0.00    +0.000 OA
ENDROOT
TORSDOF 0
REMARK  Name = ../refined-set-2016/4ca7/4ca7_pocket.pdb
REMARK  306 active torsions:
REMARK  status: ('A' for Active; 'I' for Inactive)
REMARK    1  A    between atoms: _1  and  _3
REMARK    2  A    between atoms: _3  and  _4
REMARK    3  A    between atoms: _3  and  _6
REMARK    4  A    between atoms: _6  and  _7
REMARK    5  A    between atoms: _7  and  _8
REMARK    6  A    between atoms: _8  and  _9
REMARK    7  A    between atoms: _9  and  _10
REMARK    8  A    between atoms: _14  and  _16
REMARK    9  A    between atoms: _16  and  _17
REMARK   10  A    between atoms: _16  and  _19
REMARK   11  A    between atoms: _19  and  _20
REMARK   12  A    between atoms: _20  and  _21
REMARK   13  A    between atoms: _24  and  _26
REMARK   14  A    between atoms: _26  and  _27
REMARK   15  A    between atoms: _26  and  _29
REMARK   16  A    between atoms: _29  and  _30
REMARK   17  A    between atoms: _30  and  _31
REMARK   18  A    between atoms: _34  and  _36
REMARK   19  A    between atoms: _36  and  _37
REMARK   20  A    between atoms: _36  and  _39
REMARK   21  A    between atoms: _39  and  _40
REMARK   22  A    between atoms: _45  and  _47
REMARK   23  A    between atoms: _47  and  _48
REMARK   24  A    between atoms: _47  and  _50
REMARK   25  A    between atoms: _50  and  _51
REMARK   26  A    between atoms: _61  and  _63
REMARK   27  A    between atoms: _63  and  _64
REMARK   28  A    between atoms: _63  and  _66
REMARK   29  A    between atoms: _66  and  _67
REMARK   30  A    between atoms: _67  and  _68
REMARK   31  A    between atoms: _73  and  _75
REMARK   32  A    between atoms: _75  and  _76
REMARK   33  A    between atoms: _75  and  _78
REMARK   34  A    between atoms: _78  and  _79
REMARK   35  A    between atoms: _79  and  _80
REMARK   36  A    between atoms: _85  and  _87
REMARK   37  A    between atoms: _87  and  _88
REMARK   38  A    between atoms: _87  and  _90
REMARK   39  A    between atoms: _90  and  _91
REMARK   40  A    between atoms: _93  and  _95
REMARK   41  A    between atoms: _95  and  _96
REMARK   42  A    between atoms: _95  and  _98
REMARK   43  A    between atoms: _101  and  _103
REMARK   44  A    between atoms: _103  and  _104
REMARK   45  A    between atoms: _103  and  _106
REMARK   46  A    between atoms: _108  and  _110
REMARK   47  A    between atoms: _110  and  _111
REMARK   48  A    between atoms: _110  and  _113
REMARK   49  A    between atoms: _113  and  _114
REMARK   50  A    between atoms: _119  and  _121
REMARK   51  A    between atoms: _121  and  _122
REMARK   52  A    between atoms: _125  and  _127
REMARK   53  A    between atoms: _127  and  _128
REMARK   54  A    between atoms: _127  and  _130
REMARK   55  A    between atoms: _130  and  _131
REMARK   56  A    between atoms: _133  and  _135
REMARK   57  A    between atoms: _135  and  _136
REMARK   58  A    between atoms: _139  and  _141
REMARK   59  A    between atoms: _141  and  _142
REMARK   60  A    between atoms: _141  and  _144
REMARK   61  A    between atoms: _144  and  _145
REMARK   62  A    between atoms: _155  and  _157
REMARK   63  A    between atoms: _157  and  _158
REMARK   64  A    between atoms: _157  and  _160
REMARK   65  A    between atoms: _160  and  _161
REMARK   66  A    between atoms: _164  and  _166
REMARK   67  A    between atoms: _166  and  _167
REMARK   68  A    between atoms: _166  and  _169
REMARK   69  A    between atoms: _169  and  _170
REMARK   70  A    between atoms: _175  and  _176
REMARK   71  A    between atoms: _178  and  _180
REMARK   72  A    between atoms: _180  and  _181
REMARK   73  A    between atoms: _180  and  _183
REMARK   74  A    between atoms: _183  and  _184
REMARK   75  A    between atoms: _184  and  _185
REMARK   76  A    between atoms: _185  and  _186
REMARK   77  A    between atoms: _195  and  _197
REMARK   78  A    between atoms: _197  and  _198
REMARK   79  A    between atoms: _197  and  _200
REMARK   80  A    between atoms: _200  and  _201
REMARK   81  A    between atoms: _204  and  _206
REMARK   82  A    between atoms: _206  and  _207
REMARK   83  A    between atoms: _206  and  _209
REMARK   84  A    between atoms: _209  and  _210
REMARK   85  A    between atoms: _210  and  _211
REMARK   86  A    between atoms: _211  and  _212
REMARK   87  A    between atoms: _212  and  _213
REMARK   88  A    between atoms: _217  and  _219
REMARK   89  A    between atoms: _219  and  _220
REMARK   90  A    between atoms: _219  and  _222
REMARK   91  A    between atoms: _222  and  _223
REMARK   92  A    between atoms: _223  and  _224
REMARK   93  A    between atoms: _229  and  _231
REMARK   94  A    between atoms: _231  and  _232
REMARK   95  A    between atoms: _231  and  _234
REMARK   96  A    between atoms: _234  and  _235
REMARK   97  A    between atoms: _235  and  _236
REMARK   98  A    between atoms: _236  and  _237
REMARK   99  A    between atoms: _246  and  _248
REMARK  100  A    between atoms: _248  and  _249
REMARK  101  A    between atoms: _248  and  _251
REMARK  102  A    between atoms: _251  and  _252
REMARK  103  A    between atoms: _252  and  _253
REMARK  104  A    between atoms: _258  and  _260
REMARK  105  A    between atoms: _260  and  _261
REMARK  106  A    between atoms: _260  and  _263
REMARK  107  A    between atoms: _263  and  _264
REMARK  108  A    between atoms: _267  and  _269
REMARK  109  A    between atoms: _269  and  _270
REMARK  110  A    between atoms: _269  and  _272
REMARK  111  A    between atoms: _272  and  _273
REMARK  112  A    between atoms: _273  and  _274
REMARK  113  A    between atoms: _279  and  _281
REMARK  114  A    between atoms: _281  and  _282
REMARK  115  A    between atoms: _281  and  _284
REMARK  116  A    between atoms: _284  and  _285
REMARK  117  A    between atoms: _288  and  _290
REMARK  118  A    between atoms: _290  and  _291
REMARK  119  A    between atoms: _290  and  _293
REMARK  120  A    between atoms: _293  and  _294
REMARK  121  A    between atoms: _300  and  _302
REMARK  122  A    between atoms: _302  and  _303
REMARK  123  A    between atoms: _302  and  _305
REMARK  124  A    between atoms: _305  and  _306
REMARK  125  A    between atoms: _309  and  _311
REMARK  126  A    between atoms: _311  and  _312
REMARK  127  A    between atoms: _311  and  _314
REMARK  128  A    between atoms: _317  and  _319
REMARK  129  A    between atoms: _319  and  _320
REMARK  130  A    between atoms: _319  and  _322
REMARK  131  A    between atoms: _322  and  _323
REMARK  132  A    between atoms: _328  and  _330
REMARK  133  A    between atoms: _341  and  _344
REMARK  134  A    between atoms: _344  and  _345
REMARK  135  A    between atoms: _345  and  _346
REMARK  136  A    between atoms: _351  and  _354
REMARK  137  A    between atoms: _354  and  _355
REMARK  138  A    between atoms: _365  and  _366
REMARK  139  A    between atoms: _374  and  _376
REMARK  140  A    between atoms: _376  and  _377
REMARK  141  A    between atoms: _376  and  _379
REMARK  142  A    between atoms: _379  and  _380
REMARK  143  A    between atoms: _383  and  _385
REMARK  144  A    between atoms: _385  and  _386
REMARK  145  A    between atoms: _385  and  _388
REMARK  146  A    between atoms: _388  and  _389
REMARK  147  A    between atoms: _394  and  _395
REMARK  148  A    between atoms: _397  and  _399
REMARK  149  A    between atoms: _399  and  _400
REMARK  150  A    between atoms: _399  and  _402
REMARK  151  A    between atoms: _402  and  _403
REMARK  152  A    between atoms: _409  and  _411
REMARK  153  A    between atoms: _411  and  _412
REMARK  154  A    between atoms: _411  and  _414
REMARK  155  A    between atoms: _414  and  _415
REMARK  156  A    between atoms: _420  and  _421
REMARK  157  A    between atoms: _423  and  _425
REMARK  158  A    between atoms: _425  and  _426
REMARK  159  A    between atoms: _425  and  _428
REMARK  160  A    between atoms: _428  and  _429
REMARK  161  A    between atoms: _429  and  _430
REMARK  162  A    between atoms: _430  and  _431
REMARK  163  A    between atoms: _440  and  _442
REMARK  164  A    between atoms: _442  and  _443
REMARK  165  A    between atoms: _442  and  _445
REMARK  166  A    between atoms: _445  and  _446
REMARK  167  A    between atoms: _449  and  _451
REMARK  168  A    between atoms: _451  and  _452
REMARK  169  A    between atoms: _454  and  _456
REMARK  170  A    between atoms: _456  and  _457
REMARK  171  A    between atoms: _456  and  _459
REMARK  172  A    between atoms: _459  and  _460
REMARK  173  A    between atoms: _466  and  _467
REMARK  174  A    between atoms: _472  and  _474
REMARK  175  A    between atoms: _474  and  _475
REMARK  176  A    between atoms: _477  and  _479
REMARK  177  A    between atoms: _479  and  _480
REMARK  178  A    between atoms: _479  and  _482
REMARK  179  A    between atoms: _482  and  _483
REMARK  180  A    between atoms: _489  and  _491
REMARK  181  A    between atoms: _491  and  _492
REMARK  182  A    between atoms: _491  and  _494
REMARK  183  A    between atoms: _494  and  _495
REMARK  184  A    between atoms: _500  and  _502
REMARK  185  A    between atoms: _502  and  _503
REMARK  186  A    between atoms: _502  and  _505
REMARK  187  A    between atoms: _505  and  _506
REMARK  188  A    between atoms: _506  and  _507
REMARK  189  A    between atoms: _507  and  _508
REMARK  190  A    between atoms: _508  and  ZN_790
REMARK  191  A    between atoms: _510  and  _512
REMARK  192  A    between atoms: _512  and  _513
REMARK  193  A    between atoms: _516  and  _518
REMARK  194  A    between atoms: _518  and  _519
REMARK  195  A    between atoms: _521  and  _523
REMARK  196  A    between atoms: _523  and  _524
REMARK  197  A    between atoms: _523  and  _526
REMARK  198  A    between atoms: _526  and  _527
REMARK  199  A    between atoms: _530  and  _532
REMARK  200  A    between atoms: _532  and  _533
REMARK  201  A    between atoms: _532  and  _535
REMARK  202  A    between atoms: _538  and  _540
REMARK  203  A    between atoms: _540  and  _541
REMARK  204  A    between atoms: _540  and  _543
REMARK  205  A    between atoms: _543  and  _544
REMARK  206  A    between atoms: _546  and  _548
REMARK  207  A    between atoms: _548  and  _549
REMARK  208  A    between atoms: _548  and  _551
REMARK  209  A    between atoms: _551  and  _552
REMARK  210  A    between atoms: _555  and  _557
REMARK  211  A    between atoms: _557  and  _558
REMARK  212  A    between atoms: _557  and  _560
REMARK  213  A    between atoms: _560  and  _561
REMARK  214  A    between atoms: _563  and  _565
REMARK  215  A    between atoms: _565  and  _566
REMARK  216  A    between atoms: _565  and  _568
REMARK  217  A    between atoms: _568  and  _569
REMARK  218  A    between atoms: _572  and  _574
REMARK  219  A    between atoms: _574  and  _575
REMARK  220  A    between atoms: _574  and  _577
REMARK  221  A    between atoms: _577  and  _578
REMARK  222  A    between atoms: _578  and  _579
REMARK  223  A    between atoms: _579  and  _580
REMARK  224  A    between atoms: _580  and  _581
REMARK  225  A    between atoms: _585  and  _587
REMARK  226  A    between atoms: _587  and  _588
REMARK  227  A    between atoms: _587  and  _590
REMARK  228  A    between atoms: _590  and  _591
REMARK  229  A    between atoms: _597  and  _599
REMARK  230  A    between atoms: _599  and  _600
REMARK  231  A    between atoms: _599  and  _602
REMARK  232  A    between atoms: _602  and  _603
REMARK  233  A    between atoms: _609  and  _611
REMARK  234  A    between atoms: _611  and  _612
REMARK  235  A    between atoms: _615  and  _617
REMARK  236  A    between atoms: _617  and  _618
REMARK  237  A    between atoms: _617  and  _620
REMARK  238  A    between atoms: _620  and  _621
REMARK  239  A    between atoms: _621  and  _622
REMARK  240  A    between atoms: _624  and  _626
REMARK  241  A    between atoms: _626  and  _627
REMARK  242  A    between atoms: _626  and  _629
REMARK  243  A    between atoms: _629  and  _630
REMARK  244  A    between atoms: _630  and  _631
REMARK  245  A    between atoms: _631  and  _632
REMARK  246  A    between atoms: _632  and  _633
REMARK  247  A    between atoms: _637  and  _639
REMARK  248  A    between atoms: _639  and  _640
REMARK  249  A    between atoms: _639  and  _642
REMARK  250  A    between atoms: _642  and  _643
REMARK  251  A    between atoms: _648  and  _649
REMARK  252  A    between atoms: _651  and  _653
REMARK  253  A    between atoms: _653  and  _654
REMARK  254  A    between atoms: _653  and  _656
REMARK  255  A    between atoms: _656  and  _657
REMARK  256  A    between atoms: _662  and  _664
REMARK  257  A    between atoms: _664  and  _665
REMARK  258  A    between atoms: _664  and  _667
REMARK  259  A    between atoms: _667  and  _668
REMARK  260  A    between atoms: _671  and  _673
REMARK  261  A    between atoms: _673  and  _674
REMARK  262  A    between atoms: _677  and  _679
REMARK  263  A    between atoms: _679  and  _680
REMARK  264  A    between atoms: _679  and  _682
REMARK  265  A    between atoms: _682  and  _683
REMARK  266  A    between atoms: _686  and  _688
REMARK  267  A    between atoms: _688  and  _689
REMARK  268  A    between atoms: _688  and  _691
REMARK  269  A    between atoms: _694  and  _696
REMARK  270  A    between atoms: _696  and  _697
REMARK  271  A    between atoms: _696  and  _699
REMARK  272  A    between atoms: _699  and  _700
REMARK  273  A    between atoms: _700  and  _701
REMARK  274  A    between atoms: _704  and  _706
REMARK  275  A    between atoms: _706  and  _707
REMARK  276  A    between atoms: _706  and  _709
REMARK  277  A    between atoms: _709  and  _710
REMARK  278  A    between atoms: _715  and  _716
REMARK  279  A    between atoms: _718  and  _720
REMARK  280  A    between atoms: _720  and  _721
REMARK  281  A    between atoms: _720  and  _723
REMARK  282  A    between atoms: _723  and  _724
REMARK  283  A    between atoms: _724  and  _725
REMARK  284  A    between atoms: _725  and  _726
REMARK  285  A    between atoms: _735  and  _737
REMARK  286  A    between atoms: _737  and  _738
REMARK  287  A    between atoms: _737  and  _740
REMARK  288  A    between atoms: _740  and  _741
REMARK  289  A    between atoms: _746  and  _747
REMARK  290  A    between atoms: _749  and  _751
REMARK  291  A    between atoms: _751  and  _752
REMARK  292  A    between atoms: _751  and  _754
REMARK  293  A    between atoms: _754  and  _755
REMARK  294  A    between atoms: _758  and  _760
REMARK  295  A    between atoms: _760  and  _761
REMARK  296  A    between atoms: _760  and  _763
REMARK  297  A    between atoms: _763  and  _764
REMARK  298  A    between atoms: _766  and  _768
REMARK  299  A    between atoms: _768  and  _769
REMARK  300  A    between atoms: _768  and  _771
REMARK  301  A    between atoms: _771  and  _772
REMARK  302  A    between atoms: _778  and  _780
REMARK  303  A    between atoms: _780  and  _781
REMARK  304  A    between atoms: _780  and  _783
REMARK  305  A    between atoms: _783  and  _784
REMARK  306  A    between atoms: _784  and  _785
REMARK                            x       y       z     vdW  Elec       q    Type
REMARK                         _______ _______ _______ _____ _____    ______ ____
ROOT
ATOM      1  O   HOH     1      26.111  -9.802   5.481  0.00  0.00    +0.000 OA
ENDROOT
TORSDOF 0
REMARK  Name = ../refined-set-2016/4ca7/4ca7_pocket.pdb
REMARK  306 active torsions:
REMARK  status: ('A' for Active; 'I' for Inactive)
REMARK    1  A    between atoms: _1  and  _3
REMARK    2  A    between atoms: _3  and  _4
REMARK    3  A    between atoms: _3  and  _6
REMARK    4  A    between atoms: _6  and  _7
REMARK    5  A    between atoms: _7  and  _8
REMARK    6  A    between atoms: _8  and  _9
REMARK    7  A    between atoms: _9  and  _10
REMARK    8  A    between atoms: _14  and  _16
REMARK    9  A    between atoms: _16  and  _17
REMARK   10  A    between atoms: _16  and  _19
REMARK   11  A    between atoms: _19  and  _20
REMARK   12  A    between atoms: _20  and  _21
REMARK   13  A    between atoms: _24  and  _26
REMARK   14  A    between atoms: _26  and  _27
REMARK   15  A    between atoms: _26  and  _29
REMARK   16  A    between atoms: _29  and  _30
REMARK   17  A    between atoms: _30  and  _31
REMARK   18  A    between atoms: _34  and  _36
REMARK   19  A    between atoms: _36  and  _37
REMARK   20  A    between atoms: _36  and  _39
REMARK   21  A    between atoms: _39  and  _40
REMARK   22  A    between atoms: _45  and  _47
REMARK   23  A    between atoms: _47  and  _48
REMARK   24  A    between atoms: _47  and  _50
REMARK   25  A    between atoms: _50  and  _51
REMARK   26  A    between atoms: _61  and  _63
REMARK   27  A    between atoms: _63  and  _64
REMARK   28  A    between atoms: _63  and  _66
REMARK   29  A    between atoms: _66  and  _67
REMARK   30  A    between atoms: _67  and  _68
REMARK   31  A    between atoms: _73  and  _75
REMARK   32  A    between atoms: _75  and  _76
REMARK   33  A    between atoms: _75  and  _78
REMARK   34  A    between atoms: _78  and  _79
REMARK   35  A    between atoms: _79  and  _80
REMARK   36  A    between atoms: _85  and  _87
REMARK   37  A    between atoms: _87  and  _88
REMARK   38  A    between atoms: _87  and  _90
REMARK   39  A    between atoms: _90  and  _91
REMARK   40  A    between atoms: _93  and  _95
REMARK   41  A    between atoms: _95  and  _96
REMARK   42  A    between atoms: _95  and  _98
REMARK   43  A    between atoms: _101  and  _103
REMARK   44  A    between atoms: _103  and  _104
REMARK   45  A    between atoms: _103  and  _106
REMARK   46  A    between atoms: _108  and  _110
REMARK   47  A    between atoms: _110  and  _111
REMARK   48  A    between atoms: _110  and  _113
REMARK   49  A    between atoms: _113  and  _114
REMARK   50  A    between atoms: _119  and  _121
REMARK   51  A    between atoms: _121  and  _122
REMARK   52  A    between atoms: _125  and  _127
REMARK   53  A    between atoms: _127  and  _128
REMARK   54  A    between atoms: _127  and  _130
REMARK   55  A    between atoms: _130  and  _131
REMARK   56  A    between atoms: _133  and  _135
REMARK   57  A    between atoms: _135  and  _136
REMARK   58  A    between atoms: _139  and  _141
REMARK   59  A    between atoms: _141  and  _142
REMARK   60  A    between atoms: _141  and  _144
REMARK   61  A    between atoms: _144  and  _145
REMARK   62  A    between atoms: _155  and  _157
REMARK   63  A    between atoms: _157  and  _158
REMARK   64  A    between atoms: _157  and  _160
REMARK   65  A    between atoms: _160  and  _161
REMARK   66  A    between atoms: _164  and  _166
REMARK   67  A    between atoms: _166  and  _167
REMARK   68  A    between atoms: _166  and  _169
REMARK   69  A    between atoms: _169  and  _170
REMARK   70  A    between atoms: _175  and  _176
REMARK   71  A    between atoms: _178  and  _180
REMARK   72  A    between atoms: _180  and  _181
REMARK   73  A    between atoms: _180  and  _183
REMARK   74  A    between atoms: _183  and  _184
REMARK   75  A    between atoms: _184  and  _185
REMARK   76  A    between atoms: _185  and  _186
REMARK   77  A    between atoms: _195  and  _197
REMARK   78  A    between atoms: _197  and  _198
REMARK   79  A    between atoms: _197  and  _200
REMARK   80  A    between atoms: _200  and  _201
REMARK   81  A    between atoms: _204  and  _206
REMARK   82  A    between atoms: _206  and  _207
REMARK   83  A    between atoms: _206  and  _209
REMARK   84  A    between atoms: _209  and  _210
REMARK   85  A    between atoms: _210  and  _211
REMARK   86  A    between atoms: _211  and  _212
REMARK   87  A    between atoms: _212  and  _213
REMARK   88  A    between atoms: _217  and  _219
REMARK   89  A    between atoms: _219  and  _220
REMARK   90  A    between atoms: _219  and  _222
REMARK   91  A    between atoms: _222  and  _223
REMARK   92  A    between atoms: _223  and  _224
REMARK   93  A    between atoms: _229  and  _231
REMARK   94  A    between atoms: _231  and  _232
REMARK   95  A    between atoms: _231  and  _234
REMARK   96  A    between atoms: _234  and  _235
REMARK   97  A    between atoms: _235  and  _236
REMARK   98  A    between atoms: _236  and  _237
REMARK   99  A    between atoms: _246  and  _248
REMARK  100  A    between atoms: _248  and  _249
REMARK  101  A    between atoms: _248  and  _251
REMARK  102  A    between atoms: _251  and  _252
REMARK  103  A    between atoms: _252  and  _253
REMARK  104  A    between atoms: _258  and  _260
REMARK  105  A    between atoms: _260  and  _261
REMARK  106  A    between atoms: _260  and  _263
REMARK  107  A    between atoms: _263  and  _264
REMARK  108  A    between atoms: _267  and  _269
REMARK  109  A    between atoms: _269  and  _270
REMARK  110  A    between atoms: _269  and  _272
REMARK  111  A    between atoms: _272  and  _273
REMARK  112  A    between atoms: _273  and  _274
REMARK  113  A    between atoms: _279  and  _281
REMARK  114  A    between atoms: _281  and  _282
REMARK  115  A    between atoms: _281  and  _284
REMARK  116  A    between atoms: _284  and  _285
REMARK  117  A    between atoms: _288  and  _290
REMARK  118  A    between atoms: _290  and  _291
REMARK  119  A    between atoms: _290  and  _293
REMARK  120  A    between atoms: _293  and  _294
REMARK  121  A    between atoms: _300  and  _302
REMARK  122  A    between atoms: _302  and  _303
REMARK  123  A    between atoms: _302  and  _305
REMARK  124  A    between atoms: _305  and  _306
REMARK  125  A    between atoms: _309  and  _311
REMARK  126  A    between atoms: _311  and  _312
REMARK  127  A    between atoms: _311  and  _314
REMARK  128  A    between atoms: _317  and  _319
REMARK  129  A    between atoms: _319  and  _320
REMARK  130  A    between atoms: _319  and  _322
REMARK  131  A    between atoms: _322  and  _323
REMARK  132  A    between atoms: _328  and  _330
REMARK  133  A    between atoms: _341  and  _344
REMARK  134  A    between atoms: _344  and  _345
REMARK  135  A    between atoms: _345  and  _346
REMARK  136  A    between atoms: _351  and  _354
REMARK  137  A    between atoms: _354  and  _355
REMARK  138  A    between atoms: _365  and  _366
REMARK  139  A    between atoms: _374  and  _376
REMARK  140  A    between atoms: _376  and  _377
REMARK  141  A    between atoms: _376  and  _379
REMARK  142  A    between atoms: _379  and  _380
REMARK  143  A    between atoms: _383  and  _385
REMARK  144  A    between atoms: _385  and  _386
REMARK  145  A    between atoms: _385  and  _388
REMARK  146  A    between atoms: _388  and  _389
REMARK  147  A    between atoms: _394  and  _395
REMARK  148  A    between atoms: _397  and  _399
REMARK  149  A    between atoms: _399  and  _400
REMARK  150  A    between atoms: _399  and  _402
REMARK  151  A    between atoms: _402  and  _403
REMARK  152  A    between atoms: _409  and  _411
REMARK  153  A    between atoms: _411  and  _412
REMARK  154  A    between atoms: _411  and  _414
REMARK  155  A    between atoms: _414  and  _415
REMARK  156  A    between atoms: _420  and  _421
REMARK  157  A    between atoms: _423  and  _425
REMARK  158  A    between atoms: _425  and  _426
REMARK  159  A    between atoms: _425  and  _428
REMARK  160  A    between atoms: _428  and  _429
REMARK  161  A    between atoms: _429  and  _430
REMARK  162  A    between atoms: _430  and  _431
REMARK  163  A    between atoms: _440  and  _442
REMARK  164  A    between atoms: _442  and  _443
REMARK  165  A    between atoms: _442  and  _445
REMARK  166  A    between atoms: _445  and  _446
REMARK  167  A    between atoms: _449  and  _451
REMARK  168  A    between atoms: _451  and  _452
REMARK  169  A    between atoms: _454  and  _456
REMARK  170  A    between atoms: _456  and  _457
REMARK  171  A    between atoms: _456  and  _459
REMARK  172  A    between atoms: _459  and  _460
REMARK  173  A    between atoms: _466  and  _467
REMARK  174  A    between atoms: _472  and  _474
REMARK  175  A    between atoms: _474  and  _475
REMARK  176  A    between atoms: _477  and  _479
REMARK  177  A    between atoms: _479  and  _480
REMARK  178  A    between atoms: _479  and  _482
REMARK  179  A    between atoms: _482  and  _483
REMARK  180  A    between atoms: _489  and  _491
REMARK  181  A    between atoms: _491  and  _492
REMARK  182  A    between atoms: _491  and  _494
REMARK  183  A    between atoms: _494  and  _495
REMARK  184  A    between atoms: _500  and  _502
REMARK  185  A    between atoms: _502  and  _503
REMARK  186  A    between atoms: _502  and  _505
REMARK  187  A    between atoms: _505  and  _506
REMARK  188  A    between atoms: _506  and  _507
REMARK  189  A    between atoms: _507  and  _508
REMARK  190  A    between atoms: _508  and  ZN_790
REMARK  191  A    between atoms: _510  and  _512
REMARK  192  A    between atoms: _512  and  _513
REMARK  193  A    between atoms: _516  and  _518
REMARK  194  A    between atoms: _518  and  _519
REMARK  195  A    between atoms: _521  and  _523
REMARK  196  A    between atoms: _523  and  _524
REMARK  197  A    between atoms: _523  and  _526
REMARK  198  A    between atoms: _526  and  _527
REMARK  199  A    between atoms: _530  and  _532
REMARK  200  A    between atoms: _532  and  _533
REMARK  201  A    between atoms: _532  and  _535
REMARK  202  A    between atoms: _538  and  _540
REMARK  203  A    between atoms: _540  and  _541
REMARK  204  A    between atoms: _540  and  _543
REMARK  205  A    between atoms: _543  and  _544
REMARK  206  A    between atoms: _546  and  _548
REMARK  207  A    between atoms: _548  and  _549
REMARK  208  A    between atoms: _548  and  _551
REMARK  209  A    between atoms: _551  and  _552
REMARK  210  A    between atoms: _555  and  _557
REMARK  211  A    between atoms: _557  and  _558
REMARK  212  A    between atoms: _557  and  _560
REMARK  213  A    between atoms: _560  and  _561
REMARK  214  A    between atoms: _563  and  _565
REMARK  215  A    between atoms: _565  and  _566
REMARK  216  A    between atoms: _565  and  _568
REMARK  217  A    between atoms: _568  and  _569
REMARK  218  A    between atoms: _572  and  _574
REMARK  219  A    between atoms: _574  and  _575
REMARK  220  A    between atoms: _574  and  _577
REMARK  221  A    between atoms: _577  and  _578
REMARK  222  A    between atoms: _578  and  _579
REMARK  223  A    between atoms: _579  and  _580
REMARK  224  A    between atoms: _580  and  _581
REMARK  225  A    between atoms: _585  and  _587
REMARK  226  A    between atoms: _587  and  _588
REMARK  227  A    between atoms: _587  and  _590
REMARK  228  A    between atoms: _590  and  _591
REMARK  229  A    between atoms: _597  and  _599
REMARK  230  A    between atoms: _599  and  _600
REMARK  231  A    between atoms: _599  and  _602
REMARK  232  A    between atoms: _602  and  _603
REMARK  233  A    between atoms: _609  and  _611
REMARK  234  A    between atoms: _611  and  _612
REMARK  235  A    between atoms: _615  and  _617
REMARK  236  A    between atoms: _617  and  _618
REMARK  237  A    between atoms: _617  and  _620
REMARK  238  A    between atoms: _620  and  _621
REMARK  239  A    between atoms: _621  and  _622
REMARK  240  A    between atoms: _624  and  _626
REMARK  241  A    between atoms: _626  and  _627
REMARK  242  A    between atoms: _626  and  _629
REMARK  243  A    between atoms: _629  and  _630
REMARK  244  A    between atoms: _630  and  _631
REMARK  245  A    between atoms: _631  and  _632
REMARK  246  A    between atoms: _632  and  _633
REMARK  247  A    between atoms: _637  and  _639
REMARK  248  A    between atoms: _639  and  _640
REMARK  249  A    between atoms: _639  and  _642
REMARK  250  A    between atoms: _642  and  _643
REMARK  251  A    between atoms: _648  and  _649
REMARK  252  A    between atoms: _651  and  _653
REMARK  253  A    between atoms: _653  and  _654
REMARK  254  A    between atoms: _653  and  _656
REMARK  255  A    between atoms: _656  and  _657
REMARK  256  A    between atoms: _662  and  _664
REMARK  257  A    between atoms: _664  and  _665
REMARK  258  A    between atoms: _664  and  _667
REMARK  259  A    between atoms: _667  and  _668
REMARK  260  A    between atoms: _671  and  _673
REMARK  261  A    between atoms: _673  and  _674
REMARK  262  A    between atoms: _677  and  _679
REMARK  263  A    between atoms: _679  and  _680
REMARK  264  A    between atoms: _679  and  _682
REMARK  265  A    between atoms: _682  and  _683
REMARK  266  A    between atoms: _686  and  _688
REMARK  267  A    between atoms: _688  and  _689
REMARK  268  A    between atoms: _688  and  _691
REMARK  269  A    between atoms: _694  and  _696
REMARK  270  A    between atoms: _696  and  _697
REMARK  271  A    between atoms: _696  and  _699
REMARK  272  A    between atoms: _699  and  _700
REMARK  273  A    between atoms: _700  and  _701
REMARK  274  A    between atoms: _704  and  _706
REMARK  275  A    between atoms: _706  and  _707
REMARK  276  A    between atoms: _706  and  _709
REMARK  277  A    between atoms: _709  and  _710
REMARK  278  A    between atoms: _715  and  _716
REMARK  279  A    between atoms: _718  and  _720
REMARK  280  A    between atoms: _720  and  _721
REMARK  281  A    between atoms: _720  and  _723
REMARK  282  A    between atoms: _723  and  _724
REMARK  283  A    between atoms: _724  and  _725
REMARK  284  A    between atoms: _725  and  _726
REMARK  285  A    between atoms: _735  and  _737
REMARK  286  A    between atoms: _737  and  _738
REMARK  287  A    between atoms: _737  and  _740
REMARK  288  A    between atoms: _740  and  _741
REMARK  289  A    between atoms: _746  and  _747
REMARK  290  A    between atoms: _749  and  _751
REMARK  291  A    between atoms: _751  and  _752
REMARK  292  A    between atoms: _751  and  _754
REMARK  293  A    between atoms: _754  and  _755
REMARK  294  A    between atoms: _758  and  _760
REMARK  295  A    between atoms: _760  and  _761
REMARK  296  A    between atoms: _760  and  _763
REMARK  297  A    between atoms: _763  and  _764
REMARK  298  A    between atoms: _766  and  _768
REMARK  299  A    between atoms: _768  and  _769
REMARK  300  A    between atoms: _768  and  _771
REMARK  301  A    between atoms: _771  and  _772
REMARK  302  A    between atoms: _778  and  _780
REMARK  303  A    between atoms: _780  and  _781
REMARK  304  A    between atoms: _780  and  _783
REMARK  305  A    between atoms: _783  and  _784
REMARK  306  A    between atoms: _784  and  _785
REMARK                            x       y       z     vdW  Elec       q    Type
REMARK                         _______ _______ _______ _____ _____    ______ ____
ROOT
ATOM      1  O   HOH     1      24.208  -6.107   3.710  0.00  0.00    +0.000 OA
ENDROOT
TORSDOF 0
REMARK  Name = ../refined-set-2016/4ca7/4ca7_pocket.pdb
REMARK  306 active torsions:
REMARK  status: ('A' for Active; 'I' for Inactive)
REMARK    1  A    between atoms: _1  and  _3
REMARK    2  A    between atoms: _3  and  _4
REMARK    3  A    between atoms: _3  and  _6
REMARK    4  A    between atoms: _6  and  _7
REMARK    5  A    between atoms: _7  and  _8
REMARK    6  A    between atoms: _8  and  _9
REMARK    7  A    between atoms: _9  and  _10
REMARK    8  A    between atoms: _14  and  _16
REMARK    9  A    between atoms: _16  and  _17
REMARK   10  A    between atoms: _16  and  _19
REMARK   11  A    between atoms: _19  and  _20
REMARK   12  A    between atoms: _20  and  _21
REMARK   13  A    between atoms: _24  and  _26
REMARK   14  A    between atoms: _26  and  _27
REMARK   15  A    between atoms: _26  and  _29
REMARK   16  A    between atoms: _29  and  _30
REMARK   17  A    between atoms: _30  and  _31
REMARK   18  A    between atoms: _34  and  _36
REMARK   19  A    between atoms: _36  and  _37
REMARK   20  A    between atoms: _36  and  _39
REMARK   21  A    between atoms: _39  and  _40
REMARK   22  A    between atoms: _45  and  _47
REMARK   23  A    between atoms: _47  and  _48
REMARK   24  A    between atoms: _47  and  _50
REMARK   25  A    between atoms: _50  and  _51
REMARK   26  A    between atoms: _61  and  _63
REMARK   27  A    between atoms: _63  and  _64
REMARK   28  A    between atoms: _63  and  _66
REMARK   29  A    between atoms: _66  and  _67
REMARK   30  A    between atoms: _67  and  _68
REMARK   31  A    between atoms: _73  and  _75
REMARK   32  A    between atoms: _75  and  _76
REMARK   33  A    between atoms: _75  and  _78
REMARK   34  A    between atoms: _78  and  _79
REMARK   35  A    between atoms: _79  and  _80
REMARK   36  A    between atoms: _85  and  _87
REMARK   37  A    between atoms: _87  and  _88
REMARK   38  A    between atoms: _87  and  _90
REMARK   39  A    between atoms: _90  and  _91
REMARK   40  A    between atoms: _93  and  _95
REMARK   41  A    between atoms: _95  and  _96
REMARK   42  A    between atoms: _95  and  _98
REMARK   43  A    between atoms: _101  and  _103
REMARK   44  A    between atoms: _103  and  _104
REMARK   45  A    between atoms: _103  and  _106
REMARK   46  A    between atoms: _108  and  _110
REMARK   47  A    between atoms: _110  and  _111
REMARK   48  A    between atoms: _110  and  _113
REMARK   49  A    between atoms: _113  and  _114
REMARK   50  A    between atoms: _119  and  _121
REMARK   51  A    between atoms: _121  and  _122
REMARK   52  A    between atoms: _125  and  _127
REMARK   53  A    between atoms: _127  and  _128
REMARK   54  A    between atoms: _127  and  _130
REMARK   55  A    between atoms: _130  and  _131
REMARK   56  A    between atoms: _133  and  _135
REMARK   57  A    between atoms: _135  and  _136
REMARK   58  A    between atoms: _139  and  _141
REMARK   59  A    between atoms: _141  and  _142
REMARK   60  A    between atoms: _141  and  _144
REMARK   61  A    between atoms: _144  and  _145
REMARK   62  A    between atoms: _155  and  _157
REMARK   63  A    between atoms: _157  and  _158
REMARK   64  A    between atoms: _157  and  _160
REMARK   65  A    between atoms: _160  and  _161
REMARK   66  A    between atoms: _164  and  _166
REMARK   67  A    between atoms: _166  and  _167
REMARK   68  A    between atoms: _166  and  _169
REMARK   69  A    between atoms: _169  and  _170
REMARK   70  A    between atoms: _175  and  _176
REMARK   71  A    between atoms: _178  and  _180
REMARK   72  A    between atoms: _180  and  _181
REMARK   73  A    between atoms: _180  and  _183
REMARK   74  A    between atoms: _183  and  _184
REMARK   75  A    between atoms: _184  and  _185
REMARK   76  A    between atoms: _185  and  _186
REMARK   77  A    between atoms: _195  and  _197
REMARK   78  A    between atoms: _197  and  _198
REMARK   79  A    between atoms: _197  and  _200
REMARK   80  A    between atoms: _200  and  _201
REMARK   81  A    between atoms: _204  and  _206
REMARK   82  A    between atoms: _206  and  _207
REMARK   83  A    between atoms: _206  and  _209
REMARK   84  A    between atoms: _209  and  _210
REMARK   85  A    between atoms: _210  and  _211
REMARK   86  A    between atoms: _211  and  _212
REMARK   87  A    between atoms: _212  and  _213
REMARK   88  A    between atoms: _217  and  _219
REMARK   89  A    between atoms: _219  and  _220
REMARK   90  A    between atoms: _219  and  _222
REMARK   91  A    between atoms: _222  and  _223
REMARK   92  A    between atoms: _223  and  _224
REMARK   93  A    between atoms: _229  and  _231
REMARK   94  A    between atoms: _231  and  _232
REMARK   95  A    between atoms: _231  and  _234
REMARK   96  A    between atoms: _234  and  _235
REMARK   97  A    between atoms: _235  and  _236
REMARK   98  A    between atoms: _236  and  _237
REMARK   99  A    between atoms: _246  and  _248
REMARK  100  A    between atoms: _248  and  _249
REMARK  101  A    between atoms: _248  and  _251
REMARK  102  A    between atoms: _251  and  _252
REMARK  103  A    between atoms: _252  and  _253
REMARK  104  A    between atoms: _258  and  _260
REMARK  105  A    between atoms: _260  and  _261
REMARK  106  A    between atoms: _260  and  _263
REMARK  107  A    between atoms: _263  and  _264
REMARK  108  A    between atoms: _267  and  _269
REMARK  109  A    between atoms: _269  and  _270
REMARK  110  A    between atoms: _269  and  _272
REMARK  111  A    between atoms: _272  and  _273
REMARK  112  A    between atoms: _273  and  _274
REMARK  113  A    between atoms: _279  and  _281
REMARK  114  A    between atoms: _281  and  _282
REMARK  115  A    between atoms: _281  and  _284
REMARK  116  A    between atoms: _284  and  _285
REMARK  117  A    between atoms: _288  and  _290
REMARK  118  A    between atoms: _290  and  _291
REMARK  119  A    between atoms: _290  and  _293
REMARK  120  A    between atoms: _293  and  _294
REMARK  121  A    between atoms: _300  and  _302
REMARK  122  A    between atoms: _302  and  _303
REMARK  123  A    between atoms: _302  and  _305
REMARK  124  A    between atoms: _305  and  _306
REMARK  125  A    between atoms: _309  and  _311
REMARK  126  A    between atoms: _311  and  _312
REMARK  127  A    between atoms: _311  and  _314
REMARK  128  A    between atoms: _317  and  _319
REMARK  129  A    between atoms: _319  and  _320
REMARK  130  A    between atoms: _319  and  _322
REMARK  131  A    between atoms: _322  and  _323
REMARK  132  A    between atoms: _328  and  _330
REMARK  133  A    between atoms: _341  and  _344
REMARK  134  A    between atoms: _344  and  _345
REMARK  135  A    between atoms: _345  and  _346
REMARK  136  A    between atoms: _351  and  _354
REMARK  137  A    between atoms: _354  and  _355
REMARK  138  A    between atoms: _365  and  _366
REMARK  139  A    between atoms: _374  and  _376
REMARK  140  A    between atoms: _376  and  _377
REMARK  141  A    between atoms: _376  and  _379
REMARK  142  A    between atoms: _379  and  _380
REMARK  143  A    between atoms: _383  and  _385
REMARK  144  A    between atoms: _385  and  _386
REMARK  145  A    between atoms: _385  and  _388
REMARK  146  A    between atoms: _388  and  _389
REMARK  147  A    between atoms: _394  and  _395
REMARK  148  A    between atoms: _397  and  _399
REMARK  149  A    between atoms: _399  and  _400
REMARK  150  A    between atoms: _399  and  _402
REMARK  151  A    between atoms: _402  and  _403
REMARK  152  A    between atoms: _409  and  _411
REMARK  153  A    between atoms: _411  and  _412
REMARK  154  A    between atoms: _411  and  _414
REMARK  155  A    between atoms: _414  and  _415
REMARK  156  A    between atoms: _420  and  _421
REMARK  157  A    between atoms: _423  and  _425
REMARK  158  A    between atoms: _425  and  _426
REMARK  159  A    between atoms: _425  and  _428
REMARK  160  A    between atoms: _428  and  _429
REMARK  161  A    between atoms: _429  and  _430
REMARK  162  A    between atoms: _430  and  _431
REMARK  163  A    between atoms: _440  and  _442
REMARK  164  A    between atoms: _442  and  _443
REMARK  165  A    between atoms: _442  and  _445
REMARK  166  A    between atoms: _445  and  _446
REMARK  167  A    between atoms: _449  and  _451
REMARK  168  A    between atoms: _451  and  _452
REMARK  169  A    between atoms: _454  and  _456
REMARK  170  A    between atoms: _456  and  _457
REMARK  171  A    between atoms: _456  and  _459
REMARK  172  A    between atoms: _459  and  _460
REMARK  173  A    between atoms: _466  and  _467
REMARK  174  A    between atoms: _472  and  _474
REMARK  175  A    between atoms: _474  and  _475
REMARK  176  A    between atoms: _477  and  _479
REMARK  177  A    between atoms: _479  and  _480
REMARK  178  A    between atoms: _479  and  _482
REMARK  179  A    between atoms: _482  and  _483
REMARK  180  A    between atoms: _489  and  _491
REMARK  181  A    between atoms: _491  and  _492
REMARK  182  A    between atoms: _491  and  _494
REMARK  183  A    between atoms: _494  and  _495
REMARK  184  A    between atoms: _500  and  _502
REMARK  185  A    between atoms: _502  and  _503
REMARK  186  A    between atoms: _502  and  _505
REMARK  187  A    between atoms: _505  and  _506
REMARK  188  A    between atoms: _506  and  _507
REMARK  189  A    between atoms: _507  and  _508
REMARK  190  A    between atoms: _508  and  ZN_790
REMARK  191  A    between atoms: _510  and  _512
REMARK  192  A    between atoms: _512  and  _513
REMARK  193  A    between atoms: _516  and  _518
REMARK  194  A    between atoms: _518  and  _519
REMARK  195  A    between atoms: _521  and  _523
REMARK  196  A    between atoms: _523  and  _524
REMARK  197  A    between atoms: _523  and  _526
REMARK  198  A    between atoms: _526  and  _527
REMARK  199  A    between atoms: _530  and  _532
REMARK  200  A    between atoms: _532  and  _533
REMARK  201  A    between atoms: _532  and  _535
REMARK  202  A    between atoms: _538  and  _540
REMARK  203  A    between atoms: _540  and  _541
REMARK  204  A    between atoms: _540  and  _543
REMARK  205  A    between atoms: _543  and  _544
REMARK  206  A    between atoms: _546  and  _548
REMARK  207  A    between atoms: _548  and  _549
REMARK  208  A    between atoms: _548  and  _551
REMARK  209  A    between atoms: _551  and  _552
REMARK  210  A    between atoms: _555  and  _557
REMARK  211  A    between atoms: _557  and  _558
REMARK  212  A    between atoms: _557  and  _560
REMARK  213  A    between atoms: _560  and  _561
REMARK  214  A    between atoms: _563  and  _565
REMARK  215  A    between atoms: _565  and  _566
REMARK  216  A    between atoms: _565  and  _568
REMARK  217  A    between atoms: _568  and  _569
REMARK  218  A    between atoms: _572  and  _574
REMARK  219  A    between atoms: _574  and  _575
REMARK  220  A    between atoms: _574  and  _577
REMARK  221  A    between atoms: _577  and  _578
REMARK  222  A    between atoms: _578  and  _579
REMARK  223  A    between atoms: _579  and  _580
REMARK  224  A    between atoms: _580  and  _581
REMARK  225  A    between atoms: _585  and  _587
REMARK  226  A    between atoms: _587  and  _588
REMARK  227  A    between atoms: _587  and  _590
REMARK  228  A    between atoms: _590  and  _591
REMARK  229  A    between atoms: _597  and  _599
REMARK  230  A    between atoms: _599  and  _600
REMARK  231  A    between atoms: _599  and  _602
REMARK  232  A    between atoms: _602  and  _603
REMARK  233  A    between atoms: _609  and  _611
REMARK  234  A    between atoms: _611  and  _612
REMARK  235  A    between atoms: _615  and  _617
REMARK  236  A    between atoms: _617  and  _618
REMARK  237  A    between atoms: _617  and  _620
REMARK  238  A    between atoms: _620  and  _621
REMARK  239  A    between atoms: _621  and  _622
REMARK  240  A    between atoms: _624  and  _626
REMARK  241  A    between atoms: _626  and  _627
REMARK  242  A    between atoms: _626  and  _629
REMARK  243  A    between atoms: _629  and  _630
REMARK  244  A    between atoms: _630  and  _631
REMARK  245  A    between atoms: _631  and  _632
REMARK  246  A    between atoms: _632  and  _633
REMARK  247  A    between atoms: _637  and  _639
REMARK  248  A    between atoms: _639  and  _640
REMARK  249  A    between atoms: _639  and  _642
REMARK  250  A    between atoms: _642  and  _643
REMARK  251  A    between atoms: _648  and  _649
REMARK  252  A    between atoms: _651  and  _653
REMARK  253  A    between atoms: _653  and  _654
REMARK  254  A    between atoms: _653  and  _656
REMARK  255  A    between atoms: _656  and  _657
REMARK  256  A    between atoms: _662  and  _664
REMARK  257  A    between atoms: _664  and  _665
REMARK  258  A    between atoms: _664  and  _667
REMARK  259  A    between atoms: _667  and  _668
REMARK  260  A    between atoms: _671  and  _673
REMARK  261  A    between atoms: _673  and  _674
REMARK  262  A    between atoms: _677  and  _679
REMARK  263  A    between atoms: _679  and  _680
REMARK  264  A    between atoms: _679  and  _682
REMARK  265  A    between atoms: _682  and  _683
REMARK  266  A    between atoms: _686  and  _688
REMARK  267  A    between atoms: _688  and  _689
REMARK  268  A    between atoms: _688  and  _691
REMARK  269  A    between atoms: _694  and  _696
REMARK  270  A    between atoms: _696  and  _697
REMARK  271  A    between atoms: _696  and  _699
REMARK  272  A    between atoms: _699  and  _700
REMARK  273  A    between atoms: _700  and  _701
REMARK  274  A    between atoms: _704  and  _706
REMARK  275  A    between atoms: _706  and  _707
REMARK  276  A    between atoms: _706  and  _709
REMARK  277  A    between atoms: _709  and  _710
REMARK  278  A    between atoms: _715  and  _716
REMARK  279  A    between atoms: _718  and  _720
REMARK  280  A    between atoms: _720  and  _721
REMARK  281  A    between atoms: _720  and  _723
REMARK  282  A    between atoms: _723  and  _724
REMARK  283  A    between atoms: _724  and  _725
REMARK  284  A    between atoms: _725  and  _726
REMARK  285  A    between atoms: _735  and  _737
REMARK  286  A    between atoms: _737  and  _738
REMARK  287  A    between atoms: _737  and  _740
REMARK  288  A    between atoms: _740  and  _741
REMARK  289  A    between atoms: _746  and  _747
REMARK  290  A    between atoms: _749  and  _751
REMARK  291  A    between atoms: _751  and  _752
REMARK  292  A    between atoms: _751  and  _754
REMARK  293  A    between atoms: _754  and  _755
REMARK  294  A    between atoms: _758  and  _760
REMARK  295  A    between atoms: _760  and  _761
REMARK  296  A    between atoms: _760  and  _763
REMARK  297  A    between atoms: _763  and  _764
REMARK  298  A    between atoms: _766  and  _768
REMARK  299  A    between atoms: _768  and  _769
REMARK  300  A    between atoms: _768  and  _771
REMARK  301  A    between atoms: _771  and  _772
REMARK  302  A    between atoms: _778  and  _780
REMARK  303  A    between atoms: _780  and  _781
REMARK  304  A    between atoms: _780  and  _783
REMARK  305  A    between atoms: _783  and  _784
REMARK  306  A    between atoms: _784  and  _785
REMARK                            x       y       z     vdW  Elec       q    Type
REMARK                         _______ _______ _______ _____ _____    ______ ____
ROOT
ATOM      1  O   HOH     1      23.770  -4.510  17.436  0.00  0.00    +0.000 OA
ENDROOT
TORSDOF 0
REMARK  Name = ../refined-set-2016/4ca7/4ca7_pocket.pdb
REMARK  306 active torsions:
REMARK  status: ('A' for Active; 'I' for Inactive)
REMARK    1  A    between atoms: _1  and  _3
REMARK    2  A    between atoms: _3  and  _4
REMARK    3  A    between atoms: _3  and  _6
REMARK    4  A    between atoms: _6  and  _7
REMARK    5  A    between atoms: _7  and  _8
REMARK    6  A    between atoms: _8  and  _9
REMARK    7  A    between atoms: _9  and  _10
REMARK    8  A    between atoms: _14  and  _16
REMARK    9  A    between atoms: _16  and  _17
REMARK   10  A    between atoms: _16  and  _19
REMARK   11  A    between atoms: _19  and  _20
REMARK   12  A    between atoms: _20  and  _21
REMARK   13  A    between atoms: _24  and  _26
REMARK   14  A    between atoms: _26  and  _27
REMARK   15  A    between atoms: _26  and  _29
REMARK   16  A    between atoms: _29  and  _30
REMARK   17  A    between atoms: _30  and  _31
REMARK   18  A    between atoms: _34  and  _36
REMARK   19  A    between atoms: _36  and  _37
REMARK   20  A    between atoms: _36  and  _39
REMARK   21  A    between atoms: _39  and  _40
REMARK   22  A    between atoms: _45  and  _47
REMARK   23  A    between atoms: _47  and  _48
REMARK   24  A    between atoms: _47  and  _50
REMARK   25  A    between atoms: _50  and  _51
REMARK   26  A    between atoms: _61  and  _63
REMARK   27  A    between atoms: _63  and  _64
REMARK   28  A    between atoms: _63  and  _66
REMARK   29  A    between atoms: _66  and  _67
REMARK   30  A    between atoms: _67  and  _68
REMARK   31  A    between atoms: _73  and  _75
REMARK   32  A    between atoms: _75  and  _76
REMARK   33  A    between atoms: _75  and  _78
REMARK   34  A    between atoms: _78  and  _79
REMARK   35  A    between atoms: _79  and  _80
REMARK   36  A    between atoms: _85  and  _87
REMARK   37  A    between atoms: _87  and  _88
REMARK   38  A    between atoms: _87  and  _90
REMARK   39  A    between atoms: _90  and  _91
REMARK   40  A    between atoms: _93  and  _95
REMARK   41  A    between atoms: _95  and  _96
REMARK   42  A    between atoms: _95  and  _98
REMARK   43  A    between atoms: _101  and  _103
REMARK   44  A    between atoms: _103  and  _104
REMARK   45  A    between atoms: _103  and  _106
REMARK   46  A    between atoms: _108  and  _110
REMARK   47  A    between atoms: _110  and  _111
REMARK   48  A    between atoms: _110  and  _113
REMARK   49  A    between atoms: _113  and  _114
REMARK   50  A    between atoms: _119  and  _121
REMARK   51  A    between atoms: _121  and  _122
REMARK   52  A    between atoms: _125  and  _127
REMARK   53  A    between atoms: _127  and  _128
REMARK   54  A    between atoms: _127  and  _130
REMARK   55  A    between atoms: _130  and  _131
REMARK   56  A    between atoms: _133  and  _135
REMARK   57  A    between atoms: _135  and  _136
REMARK   58  A    between atoms: _139  and  _141
REMARK   59  A    between atoms: _141  and  _142
REMARK   60  A    between atoms: _141  and  _144
REMARK   61  A    between atoms: _144  and  _145
REMARK   62  A    between atoms: _155  and  _157
REMARK   63  A    between atoms: _157  and  _158
REMARK   64  A    between atoms: _157  and  _160
REMARK   65  A    between atoms: _160  and  _161
REMARK   66  A    between atoms: _164  and  _166
REMARK   67  A    between atoms: _166  and  _167
REMARK   68  A    between atoms: _166  and  _169
REMARK   69  A    between atoms: _169  and  _170
REMARK   70  A    between atoms: _175  and  _176
REMARK   71  A    between atoms: _178  and  _180
REMARK   72  A    between atoms: _180  and  _181
REMARK   73  A    between atoms: _180  and  _183
REMARK   74  A    between atoms: _183  and  _184
REMARK   75  A    between atoms: _184  and  _185
REMARK   76  A    between atoms: _185  and  _186
REMARK   77  A    between atoms: _195  and  _197
REMARK   78  A    between atoms: _197  and  _198
REMARK   79  A    between atoms: _197  and  _200
REMARK   80  A    between atoms: _200  and  _201
REMARK   81  A    between atoms: _204  and  _206
REMARK   82  A    between atoms: _206  and  _207
REMARK   83  A    between atoms: _206  and  _209
REMARK   84  A    between atoms: _209  and  _210
REMARK   85  A    between atoms: _210  and  _211
REMARK   86  A    between atoms: _211  and  _212
REMARK   87  A    between atoms: _212  and  _213
REMARK   88  A    between atoms: _217  and  _219
REMARK   89  A    between atoms: _219  and  _220
REMARK   90  A    between atoms: _219  and  _222
REMARK   91  A    between atoms: _222  and  _223
REMARK   92  A    between atoms: _223  and  _224
REMARK   93  A    between atoms: _229  and  _231
REMARK   94  A    between atoms: _231  and  _232
REMARK   95  A    between atoms: _231  and  _234
REMARK   96  A    between atoms: _234  and  _235
REMARK   97  A    between atoms: _235  and  _236
REMARK   98  A    between atoms: _236  and  _237
REMARK   99  A    between atoms: _246  and  _248
REMARK  100  A    between atoms: _248  and  _249
REMARK  101  A    between atoms: _248  and  _251
REMARK  102  A    between atoms: _251  and  _252
REMARK  103  A    between atoms: _252  and  _253
REMARK  104  A    between atoms: _258  and  _260
REMARK  105  A    between atoms: _260  and  _261
REMARK  106  A    between atoms: _260  and  _263
REMARK  107  A    between atoms: _263  and  _264
REMARK  108  A    between atoms: _267  and  _269
REMARK  109  A    between atoms: _269  and  _270
REMARK  110  A    between atoms: _269  and  _272
REMARK  111  A    between atoms: _272  and  _273
REMARK  112  A    between atoms: _273  and  _274
REMARK  113  A    between atoms: _279  and  _281
REMARK  114  A    between atoms: _281  and  _282
REMARK  115  A    between atoms: _281  and  _284
REMARK  116  A    between atoms: _284  and  _285
REMARK  117  A    between atoms: _288  and  _290
REMARK  118  A    between atoms: _290  and  _291
REMARK  119  A    between atoms: _290  and  _293
REMARK  120  A    between atoms: _293  and  _294
REMARK  121  A    between atoms: _300  and  _302
REMARK  122  A    between atoms: _302  and  _303
REMARK  123  A    between atoms: _302  and  _305
REMARK  124  A    between atoms: _305  and  _306
REMARK  125  A    between atoms: _309  and  _311
REMARK  126  A    between atoms: _311  and  _312
REMARK  127  A    between atoms: _311  and  _314
REMARK  128  A    between atoms: _317  and  _319
REMARK  129  A    between atoms: _319  and  _320
REMARK  130  A    between atoms: _319  and  _322
REMARK  131  A    between atoms: _322  and  _323
REMARK  132  A    between atoms: _328  and  _330
REMARK  133  A    between atoms: _341  and  _344
REMARK  134  A    between atoms: _344  and  _345
REMARK  135  A    between atoms: _345  and  _346
REMARK  136  A    between atoms: _351  and  _354
REMARK  137  A    between atoms: _354  and  _355
REMARK  138  A    between atoms: _365  and  _366
REMARK  139  A    between atoms: _374  and  _376
REMARK  140  A    between atoms: _376  and  _377
REMARK  141  A    between atoms: _376  and  _379
REMARK  142  A    between atoms: _379  and  _380
REMARK  143  A    between atoms: _383  and  _385
REMARK  144  A    between atoms: _385  and  _386
REMARK  145  A    between atoms: _385  and  _388
REMARK  146  A    between atoms: _388  and  _389
REMARK  147  A    between atoms: _394  and  _395
REMARK  148  A    between atoms: _397  and  _399
REMARK  149  A    between atoms: _399  and  _400
REMARK  150  A    between atoms: _399  and  _402
REMARK  151  A    between atoms: _402  and  _403
REMARK  152  A    between atoms: _409  and  _411
REMARK  153  A    between atoms: _411  and  _412
REMARK  154  A    between atoms: _411  and  _414
REMARK  155  A    between atoms: _414  and  _415
REMARK  156  A    between atoms: _420  and  _421
REMARK  157  A    between atoms: _423  and  _425
REMARK  158  A    between atoms: _425  and  _426
REMARK  159  A    between atoms: _425  and  _428
REMARK  160  A    between atoms: _428  and  _429
REMARK  161  A    between atoms: _429  and  _430
REMARK  162  A    between atoms: _430  and  _431
REMARK  163  A    between atoms: _440  and  _442
REMARK  164  A    between atoms: _442  and  _443
REMARK  165  A    between atoms: _442  and  _445
REMARK  166  A    between atoms: _445  and  _446
REMARK  167  A    between atoms: _449  and  _451
REMARK  168  A    between atoms: _451  and  _452
REMARK  169  A    between atoms: _454  and  _456
REMARK  170  A    between atoms: _456  and  _457
REMARK  171  A    between atoms: _456  and  _459
REMARK  172  A    between atoms: _459  and  _460
REMARK  173  A    between atoms: _466  and  _467
REMARK  174  A    between atoms: _472  and  _474
REMARK  175  A    between atoms: _474  and  _475
REMARK  176  A    between atoms: _477  and  _479
REMARK  177  A    between atoms: _479  and  _480
REMARK  178  A    between atoms: _479  and  _482
REMARK  179  A    between atoms: _482  and  _483
REMARK  180  A    between atoms: _489  and  _491
REMARK  181  A    between atoms: _491  and  _492
REMARK  182  A    between atoms: _491  and  _494
REMARK  183  A    between atoms: _494  and  _495
REMARK  184  A    between atoms: _500  and  _502
REMARK  185  A    between atoms: _502  and  _503
REMARK  186  A    between atoms: _502  and  _505
REMARK  187  A    between atoms: _505  and  _506
REMARK  188  A    between atoms: _506  and  _507
REMARK  189  A    between atoms: _507  and  _508
REMARK  190  A    between atoms: _508  and  ZN_790
REMARK  191  A    between atoms: _510  and  _512
REMARK  192  A    between atoms: _512  and  _513
REMARK  193  A    between atoms: _516  and  _518
REMARK  194  A    between atoms: _518  and  _519
REMARK  195  A    between atoms: _521  and  _523
REMARK  196  A    between atoms: _523  and  _524
REMARK  197  A    between atoms: _523  and  _526
REMARK  198  A    between atoms: _526  and  _527
REMARK  199  A    between atoms: _530  and  _532
REMARK  200  A    between atoms: _532  and  _533
REMARK  201  A    between atoms: _532  and  _535
REMARK  202  A    between atoms: _538  and  _540
REMARK  203  A    between atoms: _540  and  _541
REMARK  204  A    between atoms: _540  and  _543
REMARK  205  A    between atoms: _543  and  _544
REMARK  206  A    between atoms: _546  and  _548
REMARK  207  A    between atoms: _548  and  _549
REMARK  208  A    between atoms: _548  and  _551
REMARK  209  A    between atoms: _551  and  _552
REMARK  210  A    between atoms: _555  and  _557
REMARK  211  A    between atoms: _557  and  _558
REMARK  212  A    between atoms: _557  and  _560
REMARK  213  A    between atoms: _560  and  _561
REMARK  214  A    between atoms: _563  and  _565
REMARK  215  A    between atoms: _565  and  _566
REMARK  216  A    between atoms: _565  and  _568
REMARK  217  A    between atoms: _568  and  _569
REMARK  218  A    between atoms: _572  and  _574
REMARK  219  A    between atoms: _574  and  _575
REMARK  220  A    between atoms: _574  and  _577
REMARK  221  A    between atoms: _577  and  _578
REMARK  222  A    between atoms: _578  and  _579
REMARK  223  A    between atoms: _579  and  _580
REMARK  224  A    between atoms: _580  and  _581
REMARK  225  A    between atoms: _585  and  _587
REMARK  226  A    between atoms: _587  and  _588
REMARK  227  A    between atoms: _587  and  _590
REMARK  228  A    between atoms: _590  and  _591
REMARK  229  A    between atoms: _597  and  _599
REMARK  230  A    between atoms: _599  and  _600
REMARK  231  A    between atoms: _599  and  _602
REMARK  232  A    between atoms: _602  and  _603
REMARK  233  A    between atoms: _609  and  _611
REMARK  234  A    between atoms: _611  and  _612
REMARK  235  A    between atoms: _615  and  _617
REMARK  236  A    between atoms: _617  and  _618
REMARK  237  A    between atoms: _617  and  _620
REMARK  238  A    between atoms: _620  and  _621
REMARK  239  A    between atoms: _621  and  _622
REMARK  240  A    between atoms: _624  and  _626
REMARK  241  A    between atoms: _626  and  _627
REMARK  242  A    between atoms: _626  and  _629
REMARK  243  A    between atoms: _629  and  _630
REMARK  244  A    between atoms: _630  and  _631
REMARK  245  A    between atoms: _631  and  _632
REMARK  246  A    between atoms: _632  and  _633
REMARK  247  A    between atoms: _637  and  _639
REMARK  248  A    between atoms: _639  and  _640
REMARK  249  A    between atoms: _639  and  _642
REMARK  250  A    between atoms: _642  and  _643
REMARK  251  A    between atoms: _648  and  _649
REMARK  252  A    between atoms: _651  and  _653
REMARK  253  A    between atoms: _653  and  _654
REMARK  254  A    between atoms: _653  and  _656
REMARK  255  A    between atoms: _656  and  _657
REMARK  256  A    between atoms: _662  and  _664
REMARK  257  A    between atoms: _664  and  _665
REMARK  258  A    between atoms: _664  and  _667
REMARK  259  A    between atoms: _667  and  _668
REMARK  260  A    between atoms: _671  and  _673
REMARK  261  A    between atoms: _673  and  _674
REMARK  262  A    between atoms: _677  and  _679
REMARK  263  A    between atoms: _679  and  _680
REMARK  264  A    between atoms: _679  and  _682
REMARK  265  A    between atoms: _682  and  _683
REMARK  266  A    between atoms: _686  and  _688
REMARK  267  A    between atoms: _688  and  _689
REMARK  268  A    between atoms: _688  and  _691
REMARK  269  A    between atoms: _694  and  _696
REMARK  270  A    between atoms: _696  and  _697
REMARK  271  A    between atoms: _696  and  _699
REMARK  272  A    between atoms: _699  and  _700
REMARK  273  A    between atoms: _700  and  _701
REMARK  274  A    between atoms: _704  and  _706
REMARK  275  A    between atoms: _706  and  _707
REMARK  276  A    between atoms: _706  and  _709
REMARK  277  A    between atoms: _709  and  _710
REMARK  278  A    between atoms: _715  and  _716
REMARK  279  A    between atoms: _718  and  _720
REMARK  280  A    between atoms: _720  and  _721
REMARK  281  A    between atoms: _720  and  _723
REMARK  282  A    between atoms: _723  and  _724
REMARK  283  A    between atoms: _724  and  _725
REMARK  284  A    between atoms: _725  and  _726
REMARK  285  A    between atoms: _735  and  _737
REMARK  286  A    between atoms: _737  and  _738
REMARK  287  A    between atoms: _737  and  _740
REMARK  288  A    between atoms: _740  and  _741
REMARK  289  A    between atoms: _746  and  _747
REMARK  290  A    between atoms: _749  and  _751
REMARK  291  A    between atoms: _751  and  _752
REMARK  292  A    between atoms: _751  and  _754
REMARK  293  A    between atoms: _754  and  _755
REMARK  294  A    between atoms: _758  and  _760
REMARK  295  A    between atoms: _760  and  _761
REMARK  296  A    between atoms: _760  and  _763
REMARK  297  A    between atoms: _763  and  _764
REMARK  298  A    between atoms: _766  and  _768
REMARK  299  A    between atoms: _768  and  _769
REMARK  300  A    between atoms: _768  and  _771
REMARK  301  A    between atoms: _771  and  _772
REMARK  302  A    between atoms: _778  and  _780
REMARK  303  A    between atoms: _780  and  _781
REMARK  304  A    between atoms: _780  and  _783
REMARK  305  A    between atoms: _783  and  _784
REMARK  306  A    between atoms: _784  and  _785
REMARK                            x       y       z     vdW  Elec       q    Type
REMARK                         _______ _______ _______ _____ _____    ______ ____
ROOT
ATOM      1  O   HOH     1      22.845  11.472  21.097  0.00  0.00    +0.000 OA
ENDROOT
TORSDOF 0
REMARK  Name = ../refined-set-2016/4ca7/4ca7_pocket.pdb
REMARK  306 active torsions:
REMARK  status: ('A' for Active; 'I' for Inactive)
REMARK    1  A    between atoms: _1  and  _3
REMARK    2  A    between atoms: _3  and  _4
REMARK    3  A    between atoms: _3  and  _6
REMARK    4  A    between atoms: _6  and  _7
REMARK    5  A    between atoms: _7  and  _8
REMARK    6  A    between atoms: _8  and  _9
REMARK    7  A    between atoms: _9  and  _10
REMARK    8  A    between atoms: _14  and  _16
REMARK    9  A    between atoms: _16  and  _17
REMARK   10  A    between atoms: _16  and  _19
REMARK   11  A    between atoms: _19  and  _20
REMARK   12  A    between atoms: _20  and  _21
REMARK   13  A    between atoms: _24  and  _26
REMARK   14  A    between atoms: _26  and  _27
REMARK   15  A    between atoms: _26  and  _29
REMARK   16  A    between atoms: _29  and  _30
REMARK   17  A    between atoms: _30  and  _31
REMARK   18  A    between atoms: _34  and  _36
REMARK   19  A    between atoms: _36  and  _37
REMARK   20  A    between atoms: _36  and  _39
REMARK   21  A    between atoms: _39  and  _40
REMARK   22  A    between atoms: _45  and  _47
REMARK   23  A    between atoms: _47  and  _48
REMARK   24  A    between atoms: _47  and  _50
REMARK   25  A    between atoms: _50  and  _51
REMARK   26  A    between atoms: _61  and  _63
REMARK   27  A    between atoms: _63  and  _64
REMARK   28  A    between atoms: _63  and  _66
REMARK   29  A    between atoms: _66  and  _67
REMARK   30  A    between atoms: _67  and  _68
REMARK   31  A    between atoms: _73  and  _75
REMARK   32  A    between atoms: _75  and  _76
REMARK   33  A    between atoms: _75  and  _78
REMARK   34  A    between atoms: _78  and  _79
REMARK   35  A    between atoms: _79  and  _80
REMARK   36  A    between atoms: _85  and  _87
REMARK   37  A    between atoms: _87  and  _88
REMARK   38  A    between atoms: _87  and  _90
REMARK   39  A    between atoms: _90  and  _91
REMARK   40  A    between atoms: _93  and  _95
REMARK   41  A    between atoms: _95  and  _96
REMARK   42  A    between atoms: _95  and  _98
REMARK   43  A    between atoms: _101  and  _103
REMARK   44  A    between atoms: _103  and  _104
REMARK   45  A    between atoms: _103  and  _106
REMARK   46  A    between atoms: _108  and  _110
REMARK   47  A    between atoms: _110  and  _111
REMARK   48  A    between atoms: _110  and  _113
REMARK   49  A    between atoms: _113  and  _114
REMARK   50  A    between atoms: _119  and  _121
REMARK   51  A    between atoms: _121  and  _122
REMARK   52  A    between atoms: _125  and  _127
REMARK   53  A    between atoms: _127  and  _128
REMARK   54  A    between atoms: _127  and  _130
REMARK   55  A    between atoms: _130  and  _131
REMARK   56  A    between atoms: _133  and  _135
REMARK   57  A    between atoms: _135  and  _136
REMARK   58  A    between atoms: _139  and  _141
REMARK   59  A    between atoms: _141  and  _142
REMARK   60  A    between atoms: _141  and  _144
REMARK   61  A    between atoms: _144  and  _145
REMARK   62  A    between atoms: _155  and  _157
REMARK   63  A    between atoms: _157  and  _158
REMARK   64  A    between atoms: _157  and  _160
REMARK   65  A    between atoms: _160  and  _161
REMARK   66  A    between atoms: _164  and  _166
REMARK   67  A    between atoms: _166  and  _167
REMARK   68  A    between atoms: _166  and  _169
REMARK   69  A    between atoms: _169  and  _170
REMARK   70  A    between atoms: _175  and  _176
REMARK   71  A    between atoms: _178  and  _180
REMARK   72  A    between atoms: _180  and  _181
REMARK   73  A    between atoms: _180  and  _183
REMARK   74  A    between atoms: _183  and  _184
REMARK   75  A    between atoms: _184  and  _185
REMARK   76  A    between atoms: _185  and  _186
REMARK   77  A    between atoms: _195  and  _197
REMARK   78  A    between atoms: _197  and  _198
REMARK   79  A    between atoms: _197  and  _200
REMARK   80  A    between atoms: _200  and  _201
REMARK   81  A    between atoms: _204  and  _206
REMARK   82  A    between atoms: _206  and  _207
REMARK   83  A    between atoms: _206  and  _209
REMARK   84  A    between atoms: _209  and  _210
REMARK   85  A    between atoms: _210  and  _211
REMARK   86  A    between atoms: _211  and  _212
REMARK   87  A    between atoms: _212  and  _213
REMARK   88  A    between atoms: _217  and  _219
REMARK   89  A    between atoms: _219  and  _220
REMARK   90  A    between atoms: _219  and  _222
REMARK   91  A    between atoms: _222  and  _223
REMARK   92  A    between atoms: _223  and  _224
REMARK   93  A    between atoms: _229  and  _231
REMARK   94  A    between atoms: _231  and  _232
REMARK   95  A    between atoms: _231  and  _234
REMARK   96  A    between atoms: _234  and  _235
REMARK   97  A    between atoms: _235  and  _236
REMARK   98  A    between atoms: _236  and  _237
REMARK   99  A    between atoms: _246  and  _248
REMARK  100  A    between atoms: _248  and  _249
REMARK  101  A    between atoms: _248  and  _251
REMARK  102  A    between atoms: _251  and  _252
REMARK  103  A    between atoms: _252  and  _253
REMARK  104  A    between atoms: _258  and  _260
REMARK  105  A    between atoms: _260  and  _261
REMARK  106  A    between atoms: _260  and  _263
REMARK  107  A    between atoms: _263  and  _264
REMARK  108  A    between atoms: _267  and  _269
REMARK  109  A    between atoms: _269  and  _270
REMARK  110  A    between atoms: _269  and  _272
REMARK  111  A    between atoms: _272  and  _273
REMARK  112  A    between atoms: _273  and  _274
REMARK  113  A    between atoms: _279  and  _281
REMARK  114  A    between atoms: _281  and  _282
REMARK  115  A    between atoms: _281  and  _284
REMARK  116  A    between atoms: _284  and  _285
REMARK  117  A    between atoms: _288  and  _290
REMARK  118  A    between atoms: _290  and  _291
REMARK  119  A    between atoms: _290  and  _293
REMARK  120  A    between atoms: _293  and  _294
REMARK  121  A    between atoms: _300  and  _302
REMARK  122  A    between atoms: _302  and  _303
REMARK  123  A    between atoms: _302  and  _305
REMARK  124  A    between atoms: _305  and  _306
REMARK  125  A    between atoms: _309  and  _311
REMARK  126  A    between atoms: _311  and  _312
REMARK  127  A    between atoms: _311  and  _314
REMARK  128  A    between atoms: _317  and  _319
REMARK  129  A    between atoms: _319  and  _320
REMARK  130  A    between atoms: _319  and  _322
REMARK  131  A    between atoms: _322  and  _323
REMARK  132  A    between atoms: _328  and  _330
REMARK  133  A    between atoms: _341  and  _344
REMARK  134  A    between atoms: _344  and  _345
REMARK  135  A    between atoms: _345  and  _346
REMARK  136  A    between atoms: _351  and  _354
REMARK  137  A    between atoms: _354  and  _355
REMARK  138  A    between atoms: _365  and  _366
REMARK  139  A    between atoms: _374  and  _376
REMARK  140  A    between atoms: _376  and  _377
REMARK  141  A    between atoms: _376  and  _379
REMARK  142  A    between atoms: _379  and  _380
REMARK  143  A    between atoms: _383  and  _385
REMARK  144  A    between atoms: _385  and  _386
REMARK  145  A    between atoms: _385  and  _388
REMARK  146  A    between atoms: _388  and  _389
REMARK  147  A    between atoms: _394  and  _395
REMARK  148  A    between atoms: _397  and  _399
REMARK  149  A    between atoms: _399  and  _400
REMARK  150  A    between atoms: _399  and  _402
REMARK  151  A    between atoms: _402  and  _403
REMARK  152  A    between atoms: _409  and  _411
REMARK  153  A    between atoms: _411  and  _412
REMARK  154  A    between atoms: _411  and  _414
REMARK  155  A    between atoms: _414  and  _415
REMARK  156  A    between atoms: _420  and  _421
REMARK  157  A    between atoms: _423  and  _425
REMARK  158  A    between atoms: _425  and  _426
REMARK  159  A    between atoms: _425  and  _428
REMARK  160  A    between atoms: _428  and  _429
REMARK  161  A    between atoms: _429  and  _430
REMARK  162  A    between atoms: _430  and  _431
REMARK  163  A    between atoms: _440  and  _442
REMARK  164  A    between atoms: _442  and  _443
REMARK  165  A    between atoms: _442  and  _445
REMARK  166  A    between atoms: _445  and  _446
REMARK  167  A    between atoms: _449  and  _451
REMARK  168  A    between atoms: _451  and  _452
REMARK  169  A    between atoms: _454  and  _456
REMARK  170  A    between atoms: _456  and  _457
REMARK  171  A    between atoms: _456  and  _459
REMARK  172  A    between atoms: _459  and  _460
REMARK  173  A    between atoms: _466  and  _467
REMARK  174  A    between atoms: _472  and  _474
REMARK  175  A    between atoms: _474  and  _475
REMARK  176  A    between atoms: _477  and  _479
REMARK  177  A    between atoms: _479  and  _480
REMARK  178  A    between atoms: _479  and  _482
REMARK  179  A    between atoms: _482  and  _483
REMARK  180  A    between atoms: _489  and  _491
REMARK  181  A    between atoms: _491  and  _492
REMARK  182  A    between atoms: _491  and  _494
REMARK  183  A    between atoms: _494  and  _495
REMARK  184  A    between atoms: _500  and  _502
REMARK  185  A    between atoms: _502  and  _503
REMARK  186  A    between atoms: _502  and  _505
REMARK  187  A    between atoms: _505  and  _506
REMARK  188  A    between atoms: _506  and  _507
REMARK  189  A    between atoms: _507  and  _508
REMARK  190  A    between atoms: _508  and  ZN_790
REMARK  191  A    between atoms: _510  and  _512
REMARK  192  A    between atoms: _512  and  _513
REMARK  193  A    between atoms: _516  and  _518
REMARK  194  A    between atoms: _518  and  _519
REMARK  195  A    between atoms: _521  and  _523
REMARK  196  A    between atoms: _523  and  _524
REMARK  197  A    between atoms: _523  and  _526
REMARK  198  A    between atoms: _526  and  _527
REMARK  199  A    between atoms: _530  and  _532
REMARK  200  A    between atoms: _532  and  _533
REMARK  201  A    between atoms: _532  and  _535
REMARK  202  A    between atoms: _538  and  _540
REMARK  203  A    between atoms: _540  and  _541
REMARK  204  A    between atoms: _540  and  _543
REMARK  205  A    between atoms: _543  and  _544
REMARK  206  A    between atoms: _546  and  _548
REMARK  207  A    between atoms: _548  and  _549
REMARK  208  A    between atoms: _548  and  _551
REMARK  209  A    between atoms: _551  and  _552
REMARK  210  A    between atoms: _555  and  _557
REMARK  211  A    between atoms: _557  and  _558
REMARK  212  A    between atoms: _557  and  _560
REMARK  213  A    between atoms: _560  and  _561
REMARK  214  A    between atoms: _563  and  _565
REMARK  215  A    between atoms: _565  and  _566
REMARK  216  A    between atoms: _565  and  _568
REMARK  217  A    between atoms: _568  and  _569
REMARK  218  A    between atoms: _572  and  _574
REMARK  219  A    between atoms: _574  and  _575
REMARK  220  A    between atoms: _574  and  _577
REMARK  221  A    between atoms: _577  and  _578
REMARK  222  A    between atoms: _578  and  _579
REMARK  223  A    between atoms: _579  and  _580
REMARK  224  A    between atoms: _580  and  _581
REMARK  225  A    between atoms: _585  and  _587
REMARK  226  A    between atoms: _587  and  _588
REMARK  227  A    between atoms: _587  and  _590
REMARK  228  A    between atoms: _590  and  _591
REMARK  229  A    between atoms: _597  and  _599
REMARK  230  A    between atoms: _599  and  _600
REMARK  231  A    between atoms: _599  and  _602
REMARK  232  A    between atoms: _602  and  _603
REMARK  233  A    between atoms: _609  and  _611
REMARK  234  A    between atoms: _611  and  _612
REMARK  235  A    between atoms: _615  and  _617
REMARK  236  A    between atoms: _617  and  _618
REMARK  237  A    between atoms: _617  and  _620
REMARK  238  A    between atoms: _620  and  _621
REMARK  239  A    between atoms: _621  and  _622
REMARK  240  A    between atoms: _624  and  _626
REMARK  241  A    between atoms: _626  and  _627
REMARK  242  A    between atoms: _626  and  _629
REMARK  243  A    between atoms: _629  and  _630
REMARK  244  A    between atoms: _630  and  _631
REMARK  245  A    between atoms: _631  and  _632
REMARK  246  A    between atoms: _632  and  _633
REMARK  247  A    between atoms: _637  and  _639
REMARK  248  A    between atoms: _639  and  _640
REMARK  249  A    between atoms: _639  and  _642
REMARK  250  A    between atoms: _642  and  _643
REMARK  251  A    between atoms: _648  and  _649
REMARK  252  A    between atoms: _651  and  _653
REMARK  253  A    between atoms: _653  and  _654
REMARK  254  A    between atoms: _653  and  _656
REMARK  255  A    between atoms: _656  and  _657
REMARK  256  A    between atoms: _662  and  _664
REMARK  257  A    between atoms: _664  and  _665
REMARK  258  A    between atoms: _664  and  _667
REMARK  259  A    between atoms: _667  and  _668
REMARK  260  A    between atoms: _671  and  _673
REMARK  261  A    between atoms: _673  and  _674
REMARK  262  A    between atoms: _677  and  _679
REMARK  263  A    between atoms: _679  and  _680
REMARK  264  A    between atoms: _679  and  _682
REMARK  265  A    between atoms: _682  and  _683
REMARK  266  A    between atoms: _686  and  _688
REMARK  267  A    between atoms: _688  and  _689
REMARK  268  A    between atoms: _688  and  _691
REMARK  269  A    between atoms: _694  and  _696
REMARK  270  A    between atoms: _696  and  _697
REMARK  271  A    between atoms: _696  and  _699
REMARK  272  A    between atoms: _699  and  _700
REMARK  273  A    between atoms: _700  and  _701
REMARK  274  A    between atoms: _704  and  _706
REMARK  275  A    between atoms: _706  and  _707
REMARK  276  A    between atoms: _706  and  _709
REMARK  277  A    between atoms: _709  and  _710
REMARK  278  A    between atoms: _715  and  _716
REMARK  279  A    between atoms: _718  and  _720
REMARK  280  A    between atoms: _720  and  _721
REMARK  281  A    between atoms: _720  and  _723
REMARK  282  A    between atoms: _723  and  _724
REMARK  283  A    between atoms: _724  and  _725
REMARK  284  A    between atoms: _725  and  _726
REMARK  285  A    between atoms: _735  and  _737
REMARK  286  A    between atoms: _737  and  _738
REMARK  287  A    between atoms: _737  and  _740
REMARK  288  A    between atoms: _740  and  _741
REMARK  289  A    between atoms: _746  and  _747
REMARK  290  A    between atoms: _749  and  _751
REMARK  291  A    between atoms: _751  and  _752
REMARK  292  A    between atoms: _751  and  _754
REMARK  293  A    between atoms: _754  and  _755
REMARK  294  A    between atoms: _758  and  _760
REMARK  295  A    between atoms: _760  and  _761
REMARK  296  A    between atoms: _760  and  _763
REMARK  297  A    between atoms: _763  and  _764
REMARK  298  A    between atoms: _766  and  _768
REMARK  299  A    between atoms: _768  and  _769
REMARK  300  A    between atoms: _768  and  _771
REMARK  301  A    between atoms: _771  and  _772
REMARK  302  A    between atoms: _778  and  _780
REMARK  303  A    between atoms: _780  and  _781
REMARK  304  A    between atoms: _780  and  _783
REMARK  305  A    between atoms: _783  and  _784
REMARK  306  A    between atoms: _784  and  _785
REMARK                            x       y       z     vdW  Elec       q    Type
REMARK                         _______ _______ _______ _____ _____    ______ ____
ROOT
ATOM      1  O   HOH     1      27.499   4.114  20.667  0.00  0.00    +0.000 OA
ENDROOT
TORSDOF 0
REMARK  Name = ../refined-set-2016/4ca7/4ca7_pocket.pdb
REMARK  306 active torsions:
REMARK  status: ('A' for Active; 'I' for Inactive)
REMARK    1  A    between atoms: _1  and  _3
REMARK    2  A    between atoms: _3  and  _4
REMARK    3  A    between atoms: _3  and  _6
REMARK    4  A    between atoms: _6  and  _7
REMARK    5  A    between atoms: _7  and  _8
REMARK    6  A    between atoms: _8  and  _9
REMARK    7  A    between atoms: _9  and  _10
REMARK    8  A    between atoms: _14  and  _16
REMARK    9  A    between atoms: _16  and  _17
REMARK   10  A    between atoms: _16  and  _19
REMARK   11  A    between atoms: _19  and  _20
REMARK   12  A    between atoms: _20  and  _21
REMARK   13  A    between atoms: _24  and  _26
REMARK   14  A    between atoms: _26  and  _27
REMARK   15  A    between atoms: _26  and  _29
REMARK   16  A    between atoms: _29  and  _30
REMARK   17  A    between atoms: _30  and  _31
REMARK   18  A    between atoms: _34  and  _36
REMARK   19  A    between atoms: _36  and  _37
REMARK   20  A    between atoms: _36  and  _39
REMARK   21  A    between atoms: _39  and  _40
REMARK   22  A    between atoms: _45  and  _47
REMARK   23  A    between atoms: _47  and  _48
REMARK   24  A    between atoms: _47  and  _50
REMARK   25  A    between atoms: _50  and  _51
REMARK   26  A    between atoms: _61  and  _63
REMARK   27  A    between atoms: _63  and  _64
REMARK   28  A    between atoms: _63  and  _66
REMARK   29  A    between atoms: _66  and  _67
REMARK   30  A    between atoms: _67  and  _68
REMARK   31  A    between atoms: _73  and  _75
REMARK   32  A    between atoms: _75  and  _76
REMARK   33  A    between atoms: _75  and  _78
REMARK   34  A    between atoms: _78  and  _79
REMARK   35  A    between atoms: _79  and  _80
REMARK   36  A    between atoms: _85  and  _87
REMARK   37  A    between atoms: _87  and  _88
REMARK   38  A    between atoms: _87  and  _90
REMARK   39  A    between atoms: _90  and  _91
REMARK   40  A    between atoms: _93  and  _95
REMARK   41  A    between atoms: _95  and  _96
REMARK   42  A    between atoms: _95  and  _98
REMARK   43  A    between atoms: _101  and  _103
REMARK   44  A    between atoms: _103  and  _104
REMARK   45  A    between atoms: _103  and  _106
REMARK   46  A    between atoms: _108  and  _110
REMARK   47  A    between atoms: _110  and  _111
REMARK   48  A    between atoms: _110  and  _113
REMARK   49  A    between atoms: _113  and  _114
REMARK   50  A    between atoms: _119  and  _121
REMARK   51  A    between atoms: _121  and  _122
REMARK   52  A    between atoms: _125  and  _127
REMARK   53  A    between atoms: _127  and  _128
REMARK   54  A    between atoms: _127  and  _130
REMARK   55  A    between atoms: _130  and  _131
REMARK   56  A    between atoms: _133  and  _135
REMARK   57  A    between atoms: _135  and  _136
REMARK   58  A    between atoms: _139  and  _141
REMARK   59  A    between atoms: _141  and  _142
REMARK   60  A    between atoms: _141  and  _144
REMARK   61  A    between atoms: _144  and  _145
REMARK   62  A    between atoms: _155  and  _157
REMARK   63  A    between atoms: _157  and  _158
REMARK   64  A    between atoms: _157  and  _160
REMARK   65  A    between atoms: _160  and  _161
REMARK   66  A    between atoms: _164  and  _166
REMARK   67  A    between atoms: _166  and  _167
REMARK   68  A    between atoms: _166  and  _169
REMARK   69  A    between atoms: _169  and  _170
REMARK   70  A    between atoms: _175  and  _176
REMARK   71  A    between atoms: _178  and  _180
REMARK   72  A    between atoms: _180  and  _181
REMARK   73  A    between atoms: _180  and  _183
REMARK   74  A    between atoms: _183  and  _184
REMARK   75  A    between atoms: _184  and  _185
REMARK   76  A    between atoms: _185  and  _186
REMARK   77  A    between atoms: _195  and  _197
REMARK   78  A    between atoms: _197  and  _198
REMARK   79  A    between atoms: _197  and  _200
REMARK   80  A    between atoms: _200  and  _201
REMARK   81  A    between atoms: _204  and  _206
REMARK   82  A    between atoms: _206  and  _207
REMARK   83  A    between atoms: _206  and  _209
REMARK   84  A    between atoms: _209  and  _210
REMARK   85  A    between atoms: _210  and  _211
REMARK   86  A    between atoms: _211  and  _212
REMARK   87  A    between atoms: _212  and  _213
REMARK   88  A    between atoms: _217  and  _219
REMARK   89  A    between atoms: _219  and  _220
REMARK   90  A    between atoms: _219  and  _222
REMARK   91  A    between atoms: _222  and  _223
REMARK   92  A    between atoms: _223  and  _224
REMARK   93  A    between atoms: _229  and  _231
REMARK   94  A    between atoms: _231  and  _232
REMARK   95  A    between atoms: _231  and  _234
REMARK   96  A    between atoms: _234  and  _235
REMARK   97  A    between atoms: _235  and  _236
REMARK   98  A    between atoms: _236  and  _237
REMARK   99  A    between atoms: _246  and  _248
REMARK  100  A    between atoms: _248  and  _249
REMARK  101  A    between atoms: _248  and  _251
REMARK  102  A    between atoms: _251  and  _252
REMARK  103  A    between atoms: _252  and  _253
REMARK  104  A    between atoms: _258  and  _260
REMARK  105  A    between atoms: _260  and  _261
REMARK  106  A    between atoms: _260  and  _263
REMARK  107  A    between atoms: _263  and  _264
REMARK  108  A    between atoms: _267  and  _269
REMARK  109  A    between atoms: _269  and  _270
REMARK  110  A    between atoms: _269  and  _272
REMARK  111  A    between atoms: _272  and  _273
REMARK  112  A    between atoms: _273  and  _274
REMARK  113  A    between atoms: _279  and  _281
REMARK  114  A    between atoms: _281  and  _282
REMARK  115  A    between atoms: _281  and  _284
REMARK  116  A    between atoms: _284  and  _285
REMARK  117  A    between atoms: _288  and  _290
REMARK  118  A    between atoms: _290  and  _291
REMARK  119  A    between atoms: _290  and  _293
REMARK  120  A    between atoms: _293  and  _294
REMARK  121  A    between atoms: _300  and  _302
REMARK  122  A    between atoms: _302  and  _303
REMARK  123  A    between atoms: _302  and  _305
REMARK  124  A    between atoms: _305  and  _306
REMARK  125  A    between atoms: _309  and  _311
REMARK  126  A    between atoms: _311  and  _312
REMARK  127  A    between atoms: _311  and  _314
REMARK  128  A    between atoms: _317  and  _319
REMARK  129  A    between atoms: _319  and  _320
REMARK  130  A    between atoms: _319  and  _322
REMARK  131  A    between atoms: _322  and  _323
REMARK  132  A    between atoms: _328  and  _330
REMARK  133  A    between atoms: _341  and  _344
REMARK  134  A    between atoms: _344  and  _345
REMARK  135  A    between atoms: _345  and  _346
REMARK  136  A    between atoms: _351  and  _354
REMARK  137  A    between atoms: _354  and  _355
REMARK  138  A    between atoms: _365  and  _366
REMARK  139  A    between atoms: _374  and  _376
REMARK  140  A    between atoms: _376  and  _377
REMARK  141  A    between atoms: _376  and  _379
REMARK  142  A    between atoms: _379  and  _380
REMARK  143  A    between atoms: _383  and  _385
REMARK  144  A    between atoms: _385  and  _386
REMARK  145  A    between atoms: _385  and  _388
REMARK  146  A    between atoms: _388  and  _389
REMARK  147  A    between atoms: _394  and  _395
REMARK  148  A    between atoms: _397  and  _399
REMARK  149  A    between atoms: _399  and  _400
REMARK  150  A    between atoms: _399  and  _402
REMARK  151  A    between atoms: _402  and  _403
REMARK  152  A    between atoms: _409  and  _411
REMARK  153  A    between atoms: _411  and  _412
REMARK  154  A    between atoms: _411  and  _414
REMARK  155  A    between atoms: _414  and  _415
REMARK  156  A    between atoms: _420  and  _421
REMARK  157  A    between atoms: _423  and  _425
REMARK  158  A    between atoms: _425  and  _426
REMARK  159  A    between atoms: _425  and  _428
REMARK  160  A    between atoms: _428  and  _429
REMARK  161  A    between atoms: _429  and  _430
REMARK  162  A    between atoms: _430  and  _431
REMARK  163  A    between atoms: _440  and  _442
REMARK  164  A    between atoms: _442  and  _443
REMARK  165  A    between atoms: _442  and  _445
REMARK  166  A    between atoms: _445  and  _446
REMARK  167  A    between atoms: _449  and  _451
REMARK  168  A    between atoms: _451  and  _452
REMARK  169  A    between atoms: _454  and  _456
REMARK  170  A    between atoms: _456  and  _457
REMARK  171  A    between atoms: _456  and  _459
REMARK  172  A    between atoms: _459  and  _460
REMARK  173  A    between atoms: _466  and  _467
REMARK  174  A    between atoms: _472  and  _474
REMARK  175  A    between atoms: _474  and  _475
REMARK  176  A    between atoms: _477  and  _479
REMARK  177  A    between atoms: _479  and  _480
REMARK  178  A    between atoms: _479  and  _482
REMARK  179  A    between atoms: _482  and  _483
REMARK  180  A    between atoms: _489  and  _491
REMARK  181  A    between atoms: _491  and  _492
REMARK  182  A    between atoms: _491  and  _494
REMARK  183  A    between atoms: _494  and  _495
REMARK  184  A    between atoms: _500  and  _502
REMARK  185  A    between atoms: _502  and  _503
REMARK  186  A    between atoms: _502  and  _505
REMARK  187  A    between atoms: _505  and  _506
REMARK  188  A    between atoms: _506  and  _507
REMARK  189  A    between atoms: _507  and  _508
REMARK  190  A    between atoms: _508  and  ZN_790
REMARK  191  A    between atoms: _510  and  _512
REMARK  192  A    between atoms: _512  and  _513
REMARK  193  A    between atoms: _516  and  _518
REMARK  194  A    between atoms: _518  and  _519
REMARK  195  A    between atoms: _521  and  _523
REMARK  196  A    between atoms: _523  and  _524
REMARK  197  A    between atoms: _523  and  _526
REMARK  198  A    between atoms: _526  and  _527
REMARK  199  A    between atoms: _530  and  _532
REMARK  200  A    between atoms: _532  and  _533
REMARK  201  A    between atoms: _532  and  _535
REMARK  202  A    between atoms: _538  and  _540
REMARK  203  A    between atoms: _540  and  _541
REMARK  204  A    between atoms: _540  and  _543
REMARK  205  A    between atoms: _543  and  _544
REMARK  206  A    between atoms: _546  and  _548
REMARK  207  A    between atoms: _548  and  _549
REMARK  208  A    between atoms: _548  and  _551
REMARK  209  A    between atoms: _551  and  _552
REMARK  210  A    between atoms: _555  and  _557
REMARK  211  A    between atoms: _557  and  _558
REMARK  212  A    between atoms: _557  and  _560
REMARK  213  A    between atoms: _560  and  _561
REMARK  214  A    between atoms: _563  and  _565
REMARK  215  A    between atoms: _565  and  _566
REMARK  216  A    between atoms: _565  and  _568
REMARK  217  A    between atoms: _568  and  _569
REMARK  218  A    between atoms: _572  and  _574
REMARK  219  A    between atoms: _574  and  _575
REMARK  220  A    between atoms: _574  and  _577
REMARK  221  A    between atoms: _577  and  _578
REMARK  222  A    between atoms: _578  and  _579
REMARK  223  A    between atoms: _579  and  _580
REMARK  224  A    between atoms: _580  and  _581
REMARK  225  A    between atoms: _585  and  _587
REMARK  226  A    between atoms: _587  and  _588
REMARK  227  A    between atoms: _587  and  _590
REMARK  228  A    between atoms: _590  and  _591
REMARK  229  A    between atoms: _597  and  _599
REMARK  230  A    between atoms: _599  and  _600
REMARK  231  A    between atoms: _599  and  _602
REMARK  232  A    between atoms: _602  and  _603
REMARK  233  A    between atoms: _609  and  _611
REMARK  234  A    between atoms: _611  and  _612
REMARK  235  A    between atoms: _615  and  _617
REMARK  236  A    between atoms: _617  and  _618
REMARK  237  A    between atoms: _617  and  _620
REMARK  238  A    between atoms: _620  and  _621
REMARK  239  A    between atoms: _621  and  _622
REMARK  240  A    between atoms: _624  and  _626
REMARK  241  A    between atoms: _626  and  _627
REMARK  242  A    between atoms: _626  and  _629
REMARK  243  A    between atoms: _629  and  _630
REMARK  244  A    between atoms: _630  and  _631
REMARK  245  A    between atoms: _631  and  _632
REMARK  246  A    between atoms: _632  and  _633
REMARK  247  A    between atoms: _637  and  _639
REMARK  248  A    between atoms: _639  and  _640
REMARK  249  A    between atoms: _639  and  _642
REMARK  250  A    between atoms: _642  and  _643
REMARK  251  A    between atoms: _648  and  _649
REMARK  252  A    between atoms: _651  and  _653
REMARK  253  A    between atoms: _653  and  _654
REMARK  254  A    between atoms: _653  and  _656
REMARK  255  A    between atoms: _656  and  _657
REMARK  256  A    between atoms: _662  and  _664
REMARK  257  A    between atoms: _664  and  _665
REMARK  258  A    between atoms: _664  and  _667
REMARK  259  A    between atoms: _667  and  _668
REMARK  260  A    between atoms: _671  and  _673
REMARK  261  A    between atoms: _673  and  _674
REMARK  262  A    between atoms: _677  and  _679
REMARK  263  A    between atoms: _679  and  _680
REMARK  264  A    between atoms: _679  and  _682
REMARK  265  A    between atoms: _682  and  _683
REMARK  266  A    between atoms: _686  and  _688
REMARK  267  A    between atoms: _688  and  _689
REMARK  268  A    between atoms: _688  and  _691
REMARK  269  A    between atoms: _694  and  _696
REMARK  270  A    between atoms: _696  and  _697
REMARK  271  A    between atoms: _696  and  _699
REMARK  272  A    between atoms: _699  and  _700
REMARK  273  A    between atoms: _700  and  _701
REMARK  274  A    between atoms: _704  and  _706
REMARK  275  A    between atoms: _706  and  _707
REMARK  276  A    between atoms: _706  and  _709
REMARK  277  A    between atoms: _709  and  _710
REMARK  278  A    between atoms: _715  and  _716
REMARK  279  A    between atoms: _718  and  _720
REMARK  280  A    between atoms: _720  and  _721
REMARK  281  A    between atoms: _720  and  _723
REMARK  282  A    between atoms: _723  and  _724
REMARK  283  A    between atoms: _724  and  _725
REMARK  284  A    between atoms: _725  and  _726
REMARK  285  A    between atoms: _735  and  _737
REMARK  286  A    between atoms: _737  and  _738
REMARK  287  A    between atoms: _737  and  _740
REMARK  288  A    between atoms: _740  and  _741
REMARK  289  A    between atoms: _746  and  _747
REMARK  290  A    between atoms: _749  and  _751
REMARK  291  A    between atoms: _751  and  _752
REMARK  292  A    between atoms: _751  and  _754
REMARK  293  A    between atoms: _754  and  _755
REMARK  294  A    between atoms: _758  and  _760
REMARK  295  A    between atoms: _760  and  _761
REMARK  296  A    between atoms: _760  and  _763
REMARK  297  A    between atoms: _763  and  _764
REMARK  298  A    between atoms: _766  and  _768
REMARK  299  A    between atoms: _768  and  _769
REMARK  300  A    between atoms: _768  and  _771
REMARK  301  A    between atoms: _771  and  _772
REMARK  302  A    between atoms: _778  and  _780
REMARK  303  A    between atoms: _780  and  _781
REMARK  304  A    between atoms: _780  and  _783
REMARK  305  A    between atoms: _783  and  _784
REMARK  306  A    between atoms: _784  and  _785
REMARK                            x       y       z     vdW  Elec       q    Type
REMARK                         _______ _______ _______ _____ _____    ______ ____
ROOT
ATOM      1  O   HOH     1      28.262   8.176  20.741  0.00  0.00    +0.000 OA
ENDROOT
TORSDOF 0
REMARK  Name = ../refined-set-2016/4ca7/4ca7_pocket.pdb
REMARK  306 active torsions:
REMARK  status: ('A' for Active; 'I' for Inactive)
REMARK    1  A    between atoms: _1  and  _3
REMARK    2  A    between atoms: _3  and  _4
REMARK    3  A    between atoms: _3  and  _6
REMARK    4  A    between atoms: _6  and  _7
REMARK    5  A    between atoms: _7  and  _8
REMARK    6  A    between atoms: _8  and  _9
REMARK    7  A    between atoms: _9  and  _10
REMARK    8  A    between atoms: _14  and  _16
REMARK    9  A    between atoms: _16  and  _17
REMARK   10  A    between atoms: _16  and  _19
REMARK   11  A    between atoms: _19  and  _20
REMARK   12  A    between atoms: _20  and  _21
REMARK   13  A    between atoms: _24  and  _26
REMARK   14  A    between atoms: _26  and  _27
REMARK   15  A    between atoms: _26  and  _29
REMARK   16  A    between atoms: _29  and  _30
REMARK   17  A    between atoms: _30  and  _31
REMARK   18  A    between atoms: _34  and  _36
REMARK   19  A    between atoms: _36  and  _37
REMARK   20  A    between atoms: _36  and  _39
REMARK   21  A    between atoms: _39  and  _40
REMARK   22  A    between atoms: _45  and  _47
REMARK   23  A    between atoms: _47  and  _48
REMARK   24  A    between atoms: _47  and  _50
REMARK   25  A    between atoms: _50  and  _51
REMARK   26  A    between atoms: _61  and  _63
REMARK   27  A    between atoms: _63  and  _64
REMARK   28  A    between atoms: _63  and  _66
REMARK   29  A    between atoms: _66  and  _67
REMARK   30  A    between atoms: _67  and  _68
REMARK   31  A    between atoms: _73  and  _75
REMARK   32  A    between atoms: _75  and  _76
REMARK   33  A    between atoms: _75  and  _78
REMARK   34  A    between atoms: _78  and  _79
REMARK   35  A    between atoms: _79  and  _80
REMARK   36  A    between atoms: _85  and  _87
REMARK   37  A    between atoms: _87  and  _88
REMARK   38  A    between atoms: _87  and  _90
REMARK   39  A    between atoms: _90  and  _91
REMARK   40  A    between atoms: _93  and  _95
REMARK   41  A    between atoms: _95  and  _96
REMARK   42  A    between atoms: _95  and  _98
REMARK   43  A    between atoms: _101  and  _103
REMARK   44  A    between atoms: _103  and  _104
REMARK   45  A    between atoms: _103  and  _106
REMARK   46  A    between atoms: _108  and  _110
REMARK   47  A    between atoms: _110  and  _111
REMARK   48  A    between atoms: _110  and  _113
REMARK   49  A    between atoms: _113  and  _114
REMARK   50  A    between atoms: _119  and  _121
REMARK   51  A    between atoms: _121  and  _122
REMARK   52  A    between atoms: _125  and  _127
REMARK   53  A    between atoms: _127  and  _128
REMARK   54  A    between atoms: _127  and  _130
REMARK   55  A    between atoms: _130  and  _131
REMARK   56  A    between atoms: _133  and  _135
REMARK   57  A    between atoms: _135  and  _136
REMARK   58  A    between atoms: _139  and  _141
REMARK   59  A    between atoms: _141  and  _142
REMARK   60  A    between atoms: _141  and  _144
REMARK   61  A    between atoms: _144  and  _145
REMARK   62  A    between atoms: _155  and  _157
REMARK   63  A    between atoms: _157  and  _158
REMARK   64  A    between atoms: _157  and  _160
REMARK   65  A    between atoms: _160  and  _161
REMARK   66  A    between atoms: _164  and  _166
REMARK   67  A    between atoms: _166  and  _167
REMARK   68  A    between atoms: _166  and  _169
REMARK   69  A    between atoms: _169  and  _170
REMARK   70  A    between atoms: _175  and  _176
REMARK   71  A    between atoms: _178  and  _180
REMARK   72  A    between atoms: _180  and  _181
REMARK   73  A    between atoms: _180  and  _183
REMARK   74  A    between atoms: _183  and  _184
REMARK   75  A    between atoms: _184  and  _185
REMARK   76  A    between atoms: _185  and  _186
REMARK   77  A    between atoms: _195  and  _197
REMARK   78  A    between atoms: _197  and  _198
REMARK   79  A    between atoms: _197  and  _200
REMARK   80  A    between atoms: _200  and  _201
REMARK   81  A    between atoms: _204  and  _206
REMARK   82  A    between atoms: _206  and  _207
REMARK   83  A    between atoms: _206  and  _209
REMARK   84  A    between atoms: _209  and  _210
REMARK   85  A    between atoms: _210  and  _211
REMARK   86  A    between atoms: _211  and  _212
REMARK   87  A    between atoms: _212  and  _213
REMARK   88  A    between atoms: _217  and  _219
REMARK   89  A    between atoms: _219  and  _220
REMARK   90  A    between atoms: _219  and  _222
REMARK   91  A    between atoms: _222  and  _223
REMARK   92  A    between atoms: _223  and  _224
REMARK   93  A    between atoms: _229  and  _231
REMARK   94  A    between atoms: _231  and  _232
REMARK   95  A    between atoms: _231  and  _234
REMARK   96  A    between atoms: _234  and  _235
REMARK   97  A    between atoms: _235  and  _236
REMARK   98  A    between atoms: _236  and  _237
REMARK   99  A    between atoms: _246  and  _248
REMARK  100  A    between atoms: _248  and  _249
REMARK  101  A    between atoms: _248  and  _251
REMARK  102  A    between atoms: _251  and  _252
REMARK  103  A    between atoms: _252  and  _253
REMARK  104  A    between atoms: _258  and  _260
REMARK  105  A    between atoms: _260  and  _261
REMARK  106  A    between atoms: _260  and  _263
REMARK  107  A    between atoms: _263  and  _264
REMARK  108  A    between atoms: _267  and  _269
REMARK  109  A    between atoms: _269  and  _270
REMARK  110  A    between atoms: _269  and  _272
REMARK  111  A    between atoms: _272  and  _273
REMARK  112  A    between atoms: _273  and  _274
REMARK  113  A    between atoms: _279  and  _281
REMARK  114  A    between atoms: _281  and  _282
REMARK  115  A    between atoms: _281  and  _284
REMARK  116  A    between atoms: _284  and  _285
REMARK  117  A    between atoms: _288  and  _290
REMARK  118  A    between atoms: _290  and  _291
REMARK  119  A    between atoms: _290  and  _293
REMARK  120  A    between atoms: _293  and  _294
REMARK  121  A    between atoms: _300  and  _302
REMARK  122  A    between atoms: _302  and  _303
REMARK  123  A    between atoms: _302  and  _305
REMARK  124  A    between atoms: _305  and  _306
REMARK  125  A    between atoms: _309  and  _311
REMARK  126  A    between atoms: _311  and  _312
REMARK  127  A    between atoms: _311  and  _314
REMARK  128  A    between atoms: _317  and  _319
REMARK  129  A    between atoms: _319  and  _320
REMARK  130  A    between atoms: _319  and  _322
REMARK  131  A    between atoms: _322  and  _323
REMARK  132  A    between atoms: _328  and  _330
REMARK  133  A    between atoms: _341  and  _344
REMARK  134  A    between atoms: _344  and  _345
REMARK  135  A    between atoms: _345  and  _346
REMARK  136  A    between atoms: _351  and  _354
REMARK  137  A    between atoms: _354  and  _355
REMARK  138  A    between atoms: _365  and  _366
REMARK  139  A    between atoms: _374  and  _376
REMARK  140  A    between atoms: _376  and  _377
REMARK  141  A    between atoms: _376  and  _379
REMARK  142  A    between atoms: _379  and  _380
REMARK  143  A    between atoms: _383  and  _385
REMARK  144  A    between atoms: _385  and  _386
REMARK  145  A    between atoms: _385  and  _388
REMARK  146  A    between atoms: _388  and  _389
REMARK  147  A    between atoms: _394  and  _395
REMARK  148  A    between atoms: _397  and  _399
REMARK  149  A    between atoms: _399  and  _400
REMARK  150  A    between atoms: _399  and  _402
REMARK  151  A    between atoms: _402  and  _403
REMARK  152  A    between atoms: _409  and  _411
REMARK  153  A    between atoms: _411  and  _412
REMARK  154  A    between atoms: _411  and  _414
REMARK  155  A    between atoms: _414  and  _415
REMARK  156  A    between atoms: _420  and  _421
REMARK  157  A    between atoms: _423  and  _425
REMARK  158  A    between atoms: _425  and  _426
REMARK  159  A    between atoms: _425  and  _428
REMARK  160  A    between atoms: _428  and  _429
REMARK  161  A    between atoms: _429  and  _430
REMARK  162  A    between atoms: _430  and  _431
REMARK  163  A    between atoms: _440  and  _442
REMARK  164  A    between atoms: _442  and  _443
REMARK  165  A    between atoms: _442  and  _445
REMARK  166  A    between atoms: _445  and  _446
REMARK  167  A    between atoms: _449  and  _451
REMARK  168  A    between atoms: _451  and  _452
REMARK  169  A    between atoms: _454  and  _456
REMARK  170  A    between atoms: _456  and  _457
REMARK  171  A    between atoms: _456  and  _459
REMARK  172  A    between atoms: _459  and  _460
REMARK  173  A    between atoms: _466  and  _467
REMARK  174  A    between atoms: _472  and  _474
REMARK  175  A    between atoms: _474  and  _475
REMARK  176  A    between atoms: _477  and  _479
REMARK  177  A    between atoms: _479  and  _480
REMARK  178  A    between atoms: _479  and  _482
REMARK  179  A    between atoms: _482  and  _483
REMARK  180  A    between atoms: _489  and  _491
REMARK  181  A    between atoms: _491  and  _492
REMARK  182  A    between atoms: _491  and  _494
REMARK  183  A    between atoms: _494  and  _495
REMARK  184  A    between atoms: _500  and  _502
REMARK  185  A    between atoms: _502  and  _503
REMARK  186  A    between atoms: _502  and  _505
REMARK  187  A    between atoms: _505  and  _506
REMARK  188  A    between atoms: _506  and  _507
REMARK  189  A    between atoms: _507  and  _508
REMARK  190  A    between atoms: _508  and  ZN_790
REMARK  191  A    between atoms: _510  and  _512
REMARK  192  A    between atoms: _512  and  _513
REMARK  193  A    between atoms: _516  and  _518
REMARK  194  A    between atoms: _518  and  _519
REMARK  195  A    between atoms: _521  and  _523
REMARK  196  A    between atoms: _523  and  _524
REMARK  197  A    between atoms: _523  and  _526
REMARK  198  A    between atoms: _526  and  _527
REMARK  199  A    between atoms: _530  and  _532
REMARK  200  A    between atoms: _532  and  _533
REMARK  201  A    between atoms: _532  and  _535
REMARK  202  A    between atoms: _538  and  _540
REMARK  203  A    between atoms: _540  and  _541
REMARK  204  A    between atoms: _540  and  _543
REMARK  205  A    between atoms: _543  and  _544
REMARK  206  A    between atoms: _546  and  _548
REMARK  207  A    between atoms: _548  and  _549
REMARK  208  A    between atoms: _548  and  _551
REMARK  209  A    between atoms: _551  and  _552
REMARK  210  A    between atoms: _555  and  _557
REMARK  211  A    between atoms: _557  and  _558
REMARK  212  A    between atoms: _557  and  _560
REMARK  213  A    between atoms: _560  and  _561
REMARK  214  A    between atoms: _563  and  _565
REMARK  215  A    between atoms: _565  and  _566
REMARK  216  A    between atoms: _565  and  _568
REMARK  217  A    between atoms: _568  and  _569
REMARK  218  A    between atoms: _572  and  _574
REMARK  219  A    between atoms: _574  and  _575
REMARK  220  A    between atoms: _574  and  _577
REMARK  221  A    between atoms: _577  and  _578
REMARK  222  A    between atoms: _578  and  _579
REMARK  223  A    between atoms: _579  and  _580
REMARK  224  A    between atoms: _580  and  _581
REMARK  225  A    between atoms: _585  and  _587
REMARK  226  A    between atoms: _587  and  _588
REMARK  227  A    between atoms: _587  and  _590
REMARK  228  A    between atoms: _590  and  _591
REMARK  229  A    between atoms: _597  and  _599
REMARK  230  A    between atoms: _599  and  _600
REMARK  231  A    between atoms: _599  and  _602
REMARK  232  A    between atoms: _602  and  _603
REMARK  233  A    between atoms: _609  and  _611
REMARK  234  A    between atoms: _611  and  _612
REMARK  235  A    between atoms: _615  and  _617
REMARK  236  A    between atoms: _617  and  _618
REMARK  237  A    between atoms: _617  and  _620
REMARK  238  A    between atoms: _620  and  _621
REMARK  239  A    between atoms: _621  and  _622
REMARK  240  A    between atoms: _624  and  _626
REMARK  241  A    between atoms: _626  and  _627
REMARK  242  A    between atoms: _626  and  _629
REMARK  243  A    between atoms: _629  and  _630
REMARK  244  A    between atoms: _630  and  _631
REMARK  245  A    between atoms: _631  and  _632
REMARK  246  A    between atoms: _632  and  _633
REMARK  247  A    between atoms: _637  and  _639
REMARK  248  A    between atoms: _639  and  _640
REMARK  249  A    between atoms: _639  and  _642
REMARK  250  A    between atoms: _642  and  _643
REMARK  251  A    between atoms: _648  and  _649
REMARK  252  A    between atoms: _651  and  _653
REMARK  253  A    between atoms: _653  and  _654
REMARK  254  A    between atoms: _653  and  _656
REMARK  255  A    between atoms: _656  and  _657
REMARK  256  A    between atoms: _662  and  _664
REMARK  257  A    between atoms: _664  and  _665
REMARK  258  A    between atoms: _664  and  _667
REMARK  259  A    between atoms: _667  and  _668
REMARK  260  A    between atoms: _671  and  _673
REMARK  261  A    between atoms: _673  and  _674
REMARK  262  A    between atoms: _677  and  _679
REMARK  263  A    between atoms: _679  and  _680
REMARK  264  A    between atoms: _679  and  _682
REMARK  265  A    between atoms: _682  and  _683
REMARK  266  A    between atoms: _686  and  _688
REMARK  267  A    between atoms: _688  and  _689
REMARK  268  A    between atoms: _688  and  _691
REMARK  269  A    between atoms: _694  and  _696
REMARK  270  A    between atoms: _696  and  _697
REMARK  271  A    between atoms: _696  and  _699
REMARK  272  A    between atoms: _699  and  _700
REMARK  273  A    between atoms: _700  and  _701
REMARK  274  A    between atoms: _704  and  _706
REMARK  275  A    between atoms: _706  and  _707
REMARK  276  A    between atoms: _706  and  _709
REMARK  277  A    between atoms: _709  and  _710
REMARK  278  A    between atoms: _715  and  _716
REMARK  279  A    between atoms: _718  and  _720
REMARK  280  A    between atoms: _720  and  _721
REMARK  281  A    between atoms: _720  and  _723
REMARK  282  A    between atoms: _723  and  _724
REMARK  283  A    between atoms: _724  and  _725
REMARK  284  A    between atoms: _725  and  _726
REMARK  285  A    between atoms: _735  and  _737
REMARK  286  A    between atoms: _737  and  _738
REMARK  287  A    between atoms: _737  and  _740
REMARK  288  A    between atoms: _740  and  _741
REMARK  289  A    between atoms: _746  and  _747
REMARK  290  A    between atoms: _749  and  _751
REMARK  291  A    between atoms: _751  and  _752
REMARK  292  A    between atoms: _751  and  _754
REMARK  293  A    between atoms: _754  and  _755
REMARK  294  A    between atoms: _758  and  _760
REMARK  295  A    between atoms: _760  and  _761
REMARK  296  A    between atoms: _760  and  _763
REMARK  297  A    between atoms: _763  and  _764
REMARK  298  A    between atoms: _766  and  _768
REMARK  299  A    between atoms: _768  and  _769
REMARK  300  A    between atoms: _768  and  _771
REMARK  301  A    between atoms: _771  and  _772
REMARK  302  A    between atoms: _778  and  _780
REMARK  303  A    between atoms: _780  and  _781
REMARK  304  A    between atoms: _780  and  _783
REMARK  305  A    between atoms: _783  and  _784
REMARK  306  A    between atoms: _784  and  _785
REMARK                            x       y       z     vdW  Elec       q    Type
REMARK                         _______ _______ _______ _____ _____    ______ ____
ROOT
ATOM      1  O   HOH     1      29.090   5.256  22.611  0.00  0.00    +0.000 OA
ENDROOT
TORSDOF 0
REMARK  Name = ../refined-set-2016/4ca7/4ca7_pocket.pdb
REMARK  306 active torsions:
REMARK  status: ('A' for Active; 'I' for Inactive)
REMARK    1  A    between atoms: _1  and  _3
REMARK    2  A    between atoms: _3  and  _4
REMARK    3  A    between atoms: _3  and  _6
REMARK    4  A    between atoms: _6  and  _7
REMARK    5  A    between atoms: _7  and  _8
REMARK    6  A    between atoms: _8  and  _9
REMARK    7  A    between atoms: _9  and  _10
REMARK    8  A    between atoms: _14  and  _16
REMARK    9  A    between atoms: _16  and  _17
REMARK   10  A    between atoms: _16  and  _19
REMARK   11  A    between atoms: _19  and  _20
REMARK   12  A    between atoms: _20  and  _21
REMARK   13  A    between atoms: _24  and  _26
REMARK   14  A    between atoms: _26  and  _27
REMARK   15  A    between atoms: _26  and  _29
REMARK   16  A    between atoms: _29  and  _30
REMARK   17  A    between atoms: _30  and  _31
REMARK   18  A    between atoms: _34  and  _36
REMARK   19  A    between atoms: _36  and  _37
REMARK   20  A    between atoms: _36  and  _39
REMARK   21  A    between atoms: _39  and  _40
REMARK   22  A    between atoms: _45  and  _47
REMARK   23  A    between atoms: _47  and  _48
REMARK   24  A    between atoms: _47  and  _50
REMARK   25  A    between atoms: _50  and  _51
REMARK   26  A    between atoms: _61  and  _63
REMARK   27  A    between atoms: _63  and  _64
REMARK   28  A    between atoms: _63  and  _66
REMARK   29  A    between atoms: _66  and  _67
REMARK   30  A    between atoms: _67  and  _68
REMARK   31  A    between atoms: _73  and  _75
REMARK   32  A    between atoms: _75  and  _76
REMARK   33  A    between atoms: _75  and  _78
REMARK   34  A    between atoms: _78  and  _79
REMARK   35  A    between atoms: _79  and  _80
REMARK   36  A    between atoms: _85  and  _87
REMARK   37  A    between atoms: _87  and  _88
REMARK   38  A    between atoms: _87  and  _90
REMARK   39  A    between atoms: _90  and  _91
REMARK   40  A    between atoms: _93  and  _95
REMARK   41  A    between atoms: _95  and  _96
REMARK   42  A    between atoms: _95  and  _98
REMARK   43  A    between atoms: _101  and  _103
REMARK   44  A    between atoms: _103  and  _104
REMARK   45  A    between atoms: _103  and  _106
REMARK   46  A    between atoms: _108  and  _110
REMARK   47  A    between atoms: _110  and  _111
REMARK   48  A    between atoms: _110  and  _113
REMARK   49  A    between atoms: _113  and  _114
REMARK   50  A    between atoms: _119  and  _121
REMARK   51  A    between atoms: _121  and  _122
REMARK   52  A    between atoms: _125  and  _127
REMARK   53  A    between atoms: _127  and  _128
REMARK   54  A    between atoms: _127  and  _130
REMARK   55  A    between atoms: _130  and  _131
REMARK   56  A    between atoms: _133  and  _135
REMARK   57  A    between atoms: _135  and  _136
REMARK   58  A    between atoms: _139  and  _141
REMARK   59  A    between atoms: _141  and  _142
REMARK   60  A    between atoms: _141  and  _144
REMARK   61  A    between atoms: _144  and  _145
REMARK   62  A    between atoms: _155  and  _157
REMARK   63  A    between atoms: _157  and  _158
REMARK   64  A    between atoms: _157  and  _160
REMARK   65  A    between atoms: _160  and  _161
REMARK   66  A    between atoms: _164  and  _166
REMARK   67  A    between atoms: _166  and  _167
REMARK   68  A    between atoms: _166  and  _169
REMARK   69  A    between atoms: _169  and  _170
REMARK   70  A    between atoms: _175  and  _176
REMARK   71  A    between atoms: _178  and  _180
REMARK   72  A    between atoms: _180  and  _181
REMARK   73  A    between atoms: _180  and  _183
REMARK   74  A    between atoms: _183  and  _184
REMARK   75  A    between atoms: _184  and  _185
REMARK   76  A    between atoms: _185  and  _186
REMARK   77  A    between atoms: _195  and  _197
REMARK   78  A    between atoms: _197  and  _198
REMARK   79  A    between atoms: _197  and  _200
REMARK   80  A    between atoms: _200  and  _201
REMARK   81  A    between atoms: _204  and  _206
REMARK   82  A    between atoms: _206  and  _207
REMARK   83  A    between atoms: _206  and  _209
REMARK   84  A    between atoms: _209  and  _210
REMARK   85  A    between atoms: _210  and  _211
REMARK   86  A    between atoms: _211  and  _212
REMARK   87  A    between atoms: _212  and  _213
REMARK   88  A    between atoms: _217  and  _219
REMARK   89  A    between atoms: _219  and  _220
REMARK   90  A    between atoms: _219  and  _222
REMARK   91  A    between atoms: _222  and  _223
REMARK   92  A    between atoms: _223  and  _224
REMARK   93  A    between atoms: _229  and  _231
REMARK   94  A    between atoms: _231  and  _232
REMARK   95  A    between atoms: _231  and  _234
REMARK   96  A    between atoms: _234  and  _235
REMARK   97  A    between atoms: _235  and  _236
REMARK   98  A    between atoms: _236  and  _237
REMARK   99  A    between atoms: _246  and  _248
REMARK  100  A    between atoms: _248  and  _249
REMARK  101  A    between atoms: _248  and  _251
REMARK  102  A    between atoms: _251  and  _252
REMARK  103  A    between atoms: _252  and  _253
REMARK  104  A    between atoms: _258  and  _260
REMARK  105  A    between atoms: _260  and  _261
REMARK  106  A    between atoms: _260  and  _263
REMARK  107  A    between atoms: _263  and  _264
REMARK  108  A    between atoms: _267  and  _269
REMARK  109  A    between atoms: _269  and  _270
REMARK  110  A    between atoms: _269  and  _272
REMARK  111  A    between atoms: _272  and  _273
REMARK  112  A    between atoms: _273  and  _274
REMARK  113  A    between atoms: _279  and  _281
REMARK  114  A    between atoms: _281  and  _282
REMARK  115  A    between atoms: _281  and  _284
REMARK  116  A    between atoms: _284  and  _285
REMARK  117  A    between atoms: _288  and  _290
REMARK  118  A    between atoms: _290  and  _291
REMARK  119  A    between atoms: _290  and  _293
REMARK  120  A    between atoms: _293  and  _294
REMARK  121  A    between atoms: _300  and  _302
REMARK  122  A    between atoms: _302  and  _303
REMARK  123  A    between atoms: _302  and  _305
REMARK  124  A    between atoms: _305  and  _306
REMARK  125  A    between atoms: _309  and  _311
REMARK  126  A    between atoms: _311  and  _312
REMARK  127  A    between atoms: _311  and  _314
REMARK  128  A    between atoms: _317  and  _319
REMARK  129  A    between atoms: _319  and  _320
REMARK  130  A    between atoms: _319  and  _322
REMARK  131  A    between atoms: _322  and  _323
REMARK  132  A    between atoms: _328  and  _330
REMARK  133  A    between atoms: _341  and  _344
REMARK  134  A    between atoms: _344  and  _345
REMARK  135  A    between atoms: _345  and  _346
REMARK  136  A    between atoms: _351  and  _354
REMARK  137  A    between atoms: _354  and  _355
REMARK  138  A    between atoms: _365  and  _366
REMARK  139  A    between atoms: _374  and  _376
REMARK  140  A    between atoms: _376  and  _377
REMARK  141  A    between atoms: _376  and  _379
REMARK  142  A    between atoms: _379  and  _380
REMARK  143  A    between atoms: _383  and  _385
REMARK  144  A    between atoms: _385  and  _386
REMARK  145  A    between atoms: _385  and  _388
REMARK  146  A    between atoms: _388  and  _389
REMARK  147  A    between atoms: _394  and  _395
REMARK  148  A    between atoms: _397  and  _399
REMARK  149  A    between atoms: _399  and  _400
REMARK  150  A    between atoms: _399  and  _402
REMARK  151  A    between atoms: _402  and  _403
REMARK  152  A    between atoms: _409  and  _411
REMARK  153  A    between atoms: _411  and  _412
REMARK  154  A    between atoms: _411  and  _414
REMARK  155  A    between atoms: _414  and  _415
REMARK  156  A    between atoms: _420  and  _421
REMARK  157  A    between atoms: _423  and  _425
REMARK  158  A    between atoms: _425  and  _426
REMARK  159  A    between atoms: _425  and  _428
REMARK  160  A    between atoms: _428  and  _429
REMARK  161  A    between atoms: _429  and  _430
REMARK  162  A    between atoms: _430  and  _431
REMARK  163  A    between atoms: _440  and  _442
REMARK  164  A    between atoms: _442  and  _443
REMARK  165  A    between atoms: _442  and  _445
REMARK  166  A    between atoms: _445  and  _446
REMARK  167  A    between atoms: _449  and  _451
REMARK  168  A    between atoms: _451  and  _452
REMARK  169  A    between atoms: _454  and  _456
REMARK  170  A    between atoms: _456  and  _457
REMARK  171  A    between atoms: _456  and  _459
REMARK  172  A    between atoms: _459  and  _460
REMARK  173  A    between atoms: _466  and  _467
REMARK  174  A    between atoms: _472  and  _474
REMARK  175  A    between atoms: _474  and  _475
REMARK  176  A    between atoms: _477  and  _479
REMARK  177  A    between atoms: _479  and  _480
REMARK  178  A    between atoms: _479  and  _482
REMARK  179  A    between atoms: _482  and  _483
REMARK  180  A    between atoms: _489  and  _491
REMARK  181  A    between atoms: _491  and  _492
REMARK  182  A    between atoms: _491  and  _494
REMARK  183  A    between atoms: _494  and  _495
REMARK  184  A    between atoms: _500  and  _502
REMARK  185  A    between atoms: _502  and  _503
REMARK  186  A    between atoms: _502  and  _505
REMARK  187  A    between atoms: _505  and  _506
REMARK  188  A    between atoms: _506  and  _507
REMARK  189  A    between atoms: _507  and  _508
REMARK  190  A    between atoms: _508  and  ZN_790
REMARK  191  A    between atoms: _510  and  _512
REMARK  192  A    between atoms: _512  and  _513
REMARK  193  A    between atoms: _516  and  _518
REMARK  194  A    between atoms: _518  and  _519
REMARK  195  A    between atoms: _521  and  _523
REMARK  196  A    between atoms: _523  and  _524
REMARK  197  A    between atoms: _523  and  _526
REMARK  198  A    between atoms: _526  and  _527
REMARK  199  A    between atoms: _530  and  _532
REMARK  200  A    between atoms: _532  and  _533
REMARK  201  A    between atoms: _532  and  _535
REMARK  202  A    between atoms: _538  and  _540
REMARK  203  A    between atoms: _540  and  _541
REMARK  204  A    between atoms: _540  and  _543
REMARK  205  A    between atoms: _543  and  _544
REMARK  206  A    between atoms: _546  and  _548
REMARK  207  A    between atoms: _548  and  _549
REMARK  208  A    between atoms: _548  and  _551
REMARK  209  A    between atoms: _551  and  _552
REMARK  210  A    between atoms: _555  and  _557
REMARK  211  A    between atoms: _557  and  _558
REMARK  212  A    between atoms: _557  and  _560
REMARK  213  A    between atoms: _560  and  _561
REMARK  214  A    between atoms: _563  and  _565
REMARK  215  A    between atoms: _565  and  _566
REMARK  216  A    between atoms: _565  and  _568
REMARK  217  A    between atoms: _568  and  _569
REMARK  218  A    between atoms: _572  and  _574
REMARK  219  A    between atoms: _574  and  _575
REMARK  220  A    between atoms: _574  and  _577
REMARK  221  A    between atoms: _577  and  _578
REMARK  222  A    between atoms: _578  and  _579
REMARK  223  A    between atoms: _579  and  _580
REMARK  224  A    between atoms: _580  and  _581
REMARK  225  A    between atoms: _585  and  _587
REMARK  226  A    between atoms: _587  and  _588
REMARK  227  A    between atoms: _587  and  _590
REMARK  228  A    between atoms: _590  and  _591
REMARK  229  A    between atoms: _597  and  _599
REMARK  230  A    between atoms: _599  and  _600
REMARK  231  A    between atoms: _599  and  _602
REMARK  232  A    between atoms: _602  and  _603
REMARK  233  A    between atoms: _609  and  _611
REMARK  234  A    between atoms: _611  and  _612
REMARK  235  A    between atoms: _615  and  _617
REMARK  236  A    between atoms: _617  and  _618
REMARK  237  A    between atoms: _617  and  _620
REMARK  238  A    between atoms: _620  and  _621
REMARK  239  A    between atoms: _621  and  _622
REMARK  240  A    between atoms: _624  and  _626
REMARK  241  A    between atoms: _626  and  _627
REMARK  242  A    between atoms: _626  and  _629
REMARK  243  A    between atoms: _629  and  _630
REMARK  244  A    between atoms: _630  and  _631
REMARK  245  A    between atoms: _631  and  _632
REMARK  246  A    between atoms: _632  and  _633
REMARK  247  A    between atoms: _637  and  _639
REMARK  248  A    between atoms: _639  and  _640
REMARK  249  A    between atoms: _639  and  _642
REMARK  250  A    between atoms: _642  and  _643
REMARK  251  A    between atoms: _648  and  _649
REMARK  252  A    between atoms: _651  and  _653
REMARK  253  A    between atoms: _653  and  _654
REMARK  254  A    between atoms: _653  and  _656
REMARK  255  A    between atoms: _656  and  _657
REMARK  256  A    between atoms: _662  and  _664
REMARK  257  A    between atoms: _664  and  _665
REMARK  258  A    between atoms: _664  and  _667
REMARK  259  A    between atoms: _667  and  _668
REMARK  260  A    between atoms: _671  and  _673
REMARK  261  A    between atoms: _673  and  _674
REMARK  262  A    between atoms: _677  and  _679
REMARK  263  A    between atoms: _679  and  _680
REMARK  264  A    between atoms: _679  and  _682
REMARK  265  A    between atoms: _682  and  _683
REMARK  266  A    between atoms: _686  and  _688
REMARK  267  A    between atoms: _688  and  _689
REMARK  268  A    between atoms: _688  and  _691
REMARK  269  A    between atoms: _694  and  _696
REMARK  270  A    between atoms: _696  and  _697
REMARK  271  A    between atoms: _696  and  _699
REMARK  272  A    between atoms: _699  and  _700
REMARK  273  A    between atoms: _700  and  _701
REMARK  274  A    between atoms: _704  and  _706
REMARK  275  A    between atoms: _706  and  _707
REMARK  276  A    between atoms: _706  and  _709
REMARK  277  A    between atoms: _709  and  _710
REMARK  278  A    between atoms: _715  and  _716
REMARK  279  A    between atoms: _718  and  _720
REMARK  280  A    between atoms: _720  and  _721
REMARK  281  A    between atoms: _720  and  _723
REMARK  282  A    between atoms: _723  and  _724
REMARK  283  A    between atoms: _724  and  _725
REMARK  284  A    between atoms: _725  and  _726
REMARK  285  A    between atoms: _735  and  _737
REMARK  286  A    between atoms: _737  and  _738
REMARK  287  A    between atoms: _737  and  _740
REMARK  288  A    between atoms: _740  and  _741
REMARK  289  A    between atoms: _746  and  _747
REMARK  290  A    between atoms: _749  and  _751
REMARK  291  A    between atoms: _751  and  _752
REMARK  292  A    between atoms: _751  and  _754
REMARK  293  A    between atoms: _754  and  _755
REMARK  294  A    between atoms: _758  and  _760
REMARK  295  A    between atoms: _760  and  _761
REMARK  296  A    between atoms: _760  and  _763
REMARK  297  A    between atoms: _763  and  _764
REMARK  298  A    between atoms: _766  and  _768
REMARK  299  A    between atoms: _768  and  _769
REMARK  300  A    between atoms: _768  and  _771
REMARK  301  A    between atoms: _771  and  _772
REMARK  302  A    between atoms: _778  and  _780
REMARK  303  A    between atoms: _780  and  _781
REMARK  304  A    between atoms: _780  and  _783
REMARK  305  A    between atoms: _783  and  _784
REMARK  306  A    between atoms: _784  and  _785
REMARK                            x       y       z     vdW  Elec       q    Type
REMARK                         _______ _______ _______ _____ _____    ______ ____
ROOT
ATOM      1  O   HOH     1      28.905   1.796  17.556  0.00  0.00    +0.000 OA
ENDROOT
TORSDOF 0
REMARK  Name = ../refined-set-2016/4ca7/4ca7_pocket.pdb
REMARK  306 active torsions:
REMARK  status: ('A' for Active; 'I' for Inactive)
REMARK    1  A    between atoms: _1  and  _3
REMARK    2  A    between atoms: _3  and  _4
REMARK    3  A    between atoms: _3  and  _6
REMARK    4  A    between atoms: _6  and  _7
REMARK    5  A    between atoms: _7  and  _8
REMARK    6  A    between atoms: _8  and  _9
REMARK    7  A    between atoms: _9  and  _10
REMARK    8  A    between atoms: _14  and  _16
REMARK    9  A    between atoms: _16  and  _17
REMARK   10  A    between atoms: _16  and  _19
REMARK   11  A    between atoms: _19  and  _20
REMARK   12  A    between atoms: _20  and  _21
REMARK   13  A    between atoms: _24  and  _26
REMARK   14  A    between atoms: _26  and  _27
REMARK   15  A    between atoms: _26  and  _29
REMARK   16  A    between atoms: _29  and  _30
REMARK   17  A    between atoms: _30  and  _31
REMARK   18  A    between atoms: _34  and  _36
REMARK   19  A    between atoms: _36  and  _37
REMARK   20  A    between atoms: _36  and  _39
REMARK   21  A    between atoms: _39  and  _40
REMARK   22  A    between atoms: _45  and  _47
REMARK   23  A    between atoms: _47  and  _48
REMARK   24  A    between atoms: _47  and  _50
REMARK   25  A    between atoms: _50  and  _51
REMARK   26  A    between atoms: _61  and  _63
REMARK   27  A    between atoms: _63  and  _64
REMARK   28  A    between atoms: _63  and  _66
REMARK   29  A    between atoms: _66  and  _67
REMARK   30  A    between atoms: _67  and  _68
REMARK   31  A    between atoms: _73  and  _75
REMARK   32  A    between atoms: _75  and  _76
REMARK   33  A    between atoms: _75  and  _78
REMARK   34  A    between atoms: _78  and  _79
REMARK   35  A    between atoms: _79  and  _80
REMARK   36  A    between atoms: _85  and  _87
REMARK   37  A    between atoms: _87  and  _88
REMARK   38  A    between atoms: _87  and  _90
REMARK   39  A    between atoms: _90  and  _91
REMARK   40  A    between atoms: _93  and  _95
REMARK   41  A    between atoms: _95  and  _96
REMARK   42  A    between atoms: _95  and  _98
REMARK   43  A    between atoms: _101  and  _103
REMARK   44  A    between atoms: _103  and  _104
REMARK   45  A    between atoms: _103  and  _106
REMARK   46  A    between atoms: _108  and  _110
REMARK   47  A    between atoms: _110  and  _111
REMARK   48  A    between atoms: _110  and  _113
REMARK   49  A    between atoms: _113  and  _114
REMARK   50  A    between atoms: _119  and  _121
REMARK   51  A    between atoms: _121  and  _122
REMARK   52  A    between atoms: _125  and  _127
REMARK   53  A    between atoms: _127  and  _128
REMARK   54  A    between atoms: _127  and  _130
REMARK   55  A    between atoms: _130  and  _131
REMARK   56  A    between atoms: _133  and  _135
REMARK   57  A    between atoms: _135  and  _136
REMARK   58  A    between atoms: _139  and  _141
REMARK   59  A    between atoms: _141  and  _142
REMARK   60  A    between atoms: _141  and  _144
REMARK   61  A    between atoms: _144  and  _145
REMARK   62  A    between atoms: _155  and  _157
REMARK   63  A    between atoms: _157  and  _158
REMARK   64  A    between atoms: _157  and  _160
REMARK   65  A    between atoms: _160  and  _161
REMARK   66  A    between atoms: _164  and  _166
REMARK   67  A    between atoms: _166  and  _167
REMARK   68  A    between atoms: _166  and  _169
REMARK   69  A    between atoms: _169  and  _170
REMARK   70  A    between atoms: _175  and  _176
REMARK   71  A    between atoms: _178  and  _180
REMARK   72  A    between atoms: _180  and  _181
REMARK   73  A    between atoms: _180  and  _183
REMARK   74  A    between atoms: _183  and  _184
REMARK   75  A    between atoms: _184  and  _185
REMARK   76  A    between atoms: _185  and  _186
REMARK   77  A    between atoms: _195  and  _197
REMARK   78  A    between atoms: _197  and  _198
REMARK   79  A    between atoms: _197  and  _200
REMARK   80  A    between atoms: _200  and  _201
REMARK   81  A    between atoms: _204  and  _206
REMARK   82  A    between atoms: _206  and  _207
REMARK   83  A    between atoms: _206  and  _209
REMARK   84  A    between atoms: _209  and  _210
REMARK   85  A    between atoms: _210  and  _211
REMARK   86  A    between atoms: _211  and  _212
REMARK   87  A    between atoms: _212  and  _213
REMARK   88  A    between atoms: _217  and  _219
REMARK   89  A    between atoms: _219  and  _220
REMARK   90  A    between atoms: _219  and  _222
REMARK   91  A    between atoms: _222  and  _223
REMARK   92  A    between atoms: _223  and  _224
REMARK   93  A    between atoms: _229  and  _231
REMARK   94  A    between atoms: _231  and  _232
REMARK   95  A    between atoms: _231  and  _234
REMARK   96  A    between atoms: _234  and  _235
REMARK   97  A    between atoms: _235  and  _236
REMARK   98  A    between atoms: _236  and  _237
REMARK   99  A    between atoms: _246  and  _248
REMARK  100  A    between atoms: _248  and  _249
REMARK  101  A    between atoms: _248  and  _251
REMARK  102  A    between atoms: _251  and  _252
REMARK  103  A    between atoms: _252  and  _253
REMARK  104  A    between atoms: _258  and  _260
REMARK  105  A    between atoms: _260  and  _261
REMARK  106  A    between atoms: _260  and  _263
REMARK  107  A    between atoms: _263  and  _264
REMARK  108  A    between atoms: _267  and  _269
REMARK  109  A    between atoms: _269  and  _270
REMARK  110  A    between atoms: _269  and  _272
REMARK  111  A    between atoms: _272  and  _273
REMARK  112  A    between atoms: _273  and  _274
REMARK  113  A    between atoms: _279  and  _281
REMARK  114  A    between atoms: _281  and  _282
REMARK  115  A    between atoms: _281  and  _284
REMARK  116  A    between atoms: _284  and  _285
REMARK  117  A    between atoms: _288  and  _290
REMARK  118  A    between atoms: _290  and  _291
REMARK  119  A    between atoms: _290  and  _293
REMARK  120  A    between atoms: _293  and  _294
REMARK  121  A    between atoms: _300  and  _302
REMARK  122  A    between atoms: _302  and  _303
REMARK  123  A    between atoms: _302  and  _305
REMARK  124  A    between atoms: _305  and  _306
REMARK  125  A    between atoms: _309  and  _311
REMARK  126  A    between atoms: _311  and  _312
REMARK  127  A    between atoms: _311  and  _314
REMARK  128  A    between atoms: _317  and  _319
REMARK  129  A    between atoms: _319  and  _320
REMARK  130  A    between atoms: _319  and  _322
REMARK  131  A    between atoms: _322  and  _323
REMARK  132  A    between atoms: _328  and  _330
REMARK  133  A    between atoms: _341  and  _344
REMARK  134  A    between atoms: _344  and  _345
REMARK  135  A    between atoms: _345  and  _346
REMARK  136  A    between atoms: _351  and  _354
REMARK  137  A    between atoms: _354  and  _355
REMARK  138  A    between atoms: _365  and  _366
REMARK  139  A    between atoms: _374  and  _376
REMARK  140  A    between atoms: _376  and  _377
REMARK  141  A    between atoms: _376  and  _379
REMARK  142  A    between atoms: _379  and  _380
REMARK  143  A    between atoms: _383  and  _385
REMARK  144  A    between atoms: _385  and  _386
REMARK  145  A    between atoms: _385  and  _388
REMARK  146  A    between atoms: _388  and  _389
REMARK  147  A    between atoms: _394  and  _395
REMARK  148  A    between atoms: _397  and  _399
REMARK  149  A    between atoms: _399  and  _400
REMARK  150  A    between atoms: _399  and  _402
REMARK  151  A    between atoms: _402  and  _403
REMARK  152  A    between atoms: _409  and  _411
REMARK  153  A    between atoms: _411  and  _412
REMARK  154  A    between atoms: _411  and  _414
REMARK  155  A    between atoms: _414  and  _415
REMARK  156  A    between atoms: _420  and  _421
REMARK  157  A    between atoms: _423  and  _425
REMARK  158  A    between atoms: _425  and  _426
REMARK  159  A    between atoms: _425  and  _428
REMARK  160  A    between atoms: _428  and  _429
REMARK  161  A    between atoms: _429  and  _430
REMARK  162  A    between atoms: _430  and  _431
REMARK  163  A    between atoms: _440  and  _442
REMARK  164  A    between atoms: _442  and  _443
REMARK  165  A    between atoms: _442  and  _445
REMARK  166  A    between atoms: _445  and  _446
REMARK  167  A    between atoms: _449  and  _451
REMARK  168  A    between atoms: _451  and  _452
REMARK  169  A    between atoms: _454  and  _456
REMARK  170  A    between atoms: _456  and  _457
REMARK  171  A    between atoms: _456  and  _459
REMARK  172  A    between atoms: _459  and  _460
REMARK  173  A    between atoms: _466  and  _467
REMARK  174  A    between atoms: _472  and  _474
REMARK  175  A    between atoms: _474  and  _475
REMARK  176  A    between atoms: _477  and  _479
REMARK  177  A    between atoms: _479  and  _480
REMARK  178  A    between atoms: _479  and  _482
REMARK  179  A    between atoms: _482  and  _483
REMARK  180  A    between atoms: _489  and  _491
REMARK  181  A    between atoms: _491  and  _492
REMARK  182  A    between atoms: _491  and  _494
REMARK  183  A    between atoms: _494  and  _495
REMARK  184  A    between atoms: _500  and  _502
REMARK  185  A    between atoms: _502  and  _503
REMARK  186  A    between atoms: _502  and  _505
REMARK  187  A    between atoms: _505  and  _506
REMARK  188  A    between atoms: _506  and  _507
REMARK  189  A    between atoms: _507  and  _508
REMARK  190  A    between atoms: _508  and  ZN_790
REMARK  191  A    between atoms: _510  and  _512
REMARK  192  A    between atoms: _512  and  _513
REMARK  193  A    between atoms: _516  and  _518
REMARK  194  A    between atoms: _518  and  _519
REMARK  195  A    between atoms: _521  and  _523
REMARK  196  A    between atoms: _523  and  _524
REMARK  197  A    between atoms: _523  and  _526
REMARK  198  A    between atoms: _526  and  _527
REMARK  199  A    between atoms: _530  and  _532
REMARK  200  A    between atoms: _532  and  _533
REMARK  201  A    between atoms: _532  and  _535
REMARK  202  A    between atoms: _538  and  _540
REMARK  203  A    between atoms: _540  and  _541
REMARK  204  A    between atoms: _540  and  _543
REMARK  205  A    between atoms: _543  and  _544
REMARK  206  A    between atoms: _546  and  _548
REMARK  207  A    between atoms: _548  and  _549
REMARK  208  A    between atoms: _548  and  _551
REMARK  209  A    between atoms: _551  and  _552
REMARK  210  A    between atoms: _555  and  _557
REMARK  211  A    between atoms: _557  and  _558
REMARK  212  A    between atoms: _557  and  _560
REMARK  213  A    between atoms: _560  and  _561
REMARK  214  A    between atoms: _563  and  _565
REMARK  215  A    between atoms: _565  and  _566
REMARK  216  A    between atoms: _565  and  _568
REMARK  217  A    between atoms: _568  and  _569
REMARK  218  A    between atoms: _572  and  _574
REMARK  219  A    between atoms: _574  and  _575
REMARK  220  A    between atoms: _574  and  _577
REMARK  221  A    between atoms: _577  and  _578
REMARK  222  A    between atoms: _578  and  _579
REMARK  223  A    between atoms: _579  and  _580
REMARK  224  A    between atoms: _580  and  _581
REMARK  225  A    between atoms: _585  and  _587
REMARK  226  A    between atoms: _587  and  _588
REMARK  227  A    between atoms: _587  and  _590
REMARK  228  A    between atoms: _590  and  _591
REMARK  229  A    between atoms: _597  and  _599
REMARK  230  A    between atoms: _599  and  _600
REMARK  231  A    between atoms: _599  and  _602
REMARK  232  A    between atoms: _602  and  _603
REMARK  233  A    between atoms: _609  and  _611
REMARK  234  A    between atoms: _611  and  _612
REMARK  235  A    between atoms: _615  and  _617
REMARK  236  A    between atoms: _617  and  _618
REMARK  237  A    between atoms: _617  and  _620
REMARK  238  A    between atoms: _620  and  _621
REMARK  239  A    between atoms: _621  and  _622
REMARK  240  A    between atoms: _624  and  _626
REMARK  241  A    between atoms: _626  and  _627
REMARK  242  A    between atoms: _626  and  _629
REMARK  243  A    between atoms: _629  and  _630
REMARK  244  A    between atoms: _630  and  _631
REMARK  245  A    between atoms: _631  and  _632
REMARK  246  A    between atoms: _632  and  _633
REMARK  247  A    between atoms: _637  and  _639
REMARK  248  A    between atoms: _639  and  _640
REMARK  249  A    between atoms: _639  and  _642
REMARK  250  A    between atoms: _642  and  _643
REMARK  251  A    between atoms: _648  and  _649
REMARK  252  A    between atoms: _651  and  _653
REMARK  253  A    between atoms: _653  and  _654
REMARK  254  A    between atoms: _653  and  _656
REMARK  255  A    between atoms: _656  and  _657
REMARK  256  A    between atoms: _662  and  _664
REMARK  257  A    between atoms: _664  and  _665
REMARK  258  A    between atoms: _664  and  _667
REMARK  259  A    between atoms: _667  and  _668
REMARK  260  A    between atoms: _671  and  _673
REMARK  261  A    between atoms: _673  and  _674
REMARK  262  A    between atoms: _677  and  _679
REMARK  263  A    between atoms: _679  and  _680
REMARK  264  A    between atoms: _679  and  _682
REMARK  265  A    between atoms: _682  and  _683
REMARK  266  A    between atoms: _686  and  _688
REMARK  267  A    between atoms: _688  and  _689
REMARK  268  A    between atoms: _688  and  _691
REMARK  269  A    between atoms: _694  and  _696
REMARK  270  A    between atoms: _696  and  _697
REMARK  271  A    between atoms: _696  and  _699
REMARK  272  A    between atoms: _699  and  _700
REMARK  273  A    between atoms: _700  and  _701
REMARK  274  A    between atoms: _704  and  _706
REMARK  275  A    between atoms: _706  and  _707
REMARK  276  A    between atoms: _706  and  _709
REMARK  277  A    between atoms: _709  and  _710
REMARK  278  A    between atoms: _715  and  _716
REMARK  279  A    between atoms: _718  and  _720
REMARK  280  A    between atoms: _720  and  _721
REMARK  281  A    between atoms: _720  and  _723
REMARK  282  A    between atoms: _723  and  _724
REMARK  283  A    between atoms: _724  and  _725
REMARK  284  A    between atoms: _725  and  _726
REMARK  285  A    between atoms: _735  and  _737
REMARK  286  A    between atoms: _737  and  _738
REMARK  287  A    between atoms: _737  and  _740
REMARK  288  A    between atoms: _740  and  _741
REMARK  289  A    between atoms: _746  and  _747
REMARK  290  A    between atoms: _749  and  _751
REMARK  291  A    between atoms: _751  and  _752
REMARK  292  A    between atoms: _751  and  _754
REMARK  293  A    between atoms: _754  and  _755
REMARK  294  A    between atoms: _758  and  _760
REMARK  295  A    between atoms: _760  and  _761
REMARK  296  A    between atoms: _760  and  _763
REMARK  297  A    between atoms: _763  and  _764
REMARK  298  A    between atoms: _766  and  _768
REMARK  299  A    between atoms: _768  and  _769
REMARK  300  A    between atoms: _768  and  _771
REMARK  301  A    between atoms: _771  and  _772
REMARK  302  A    between atoms: _778  and  _780
REMARK  303  A    between atoms: _780  and  _781
REMARK  304  A    between atoms: _780  and  _783
REMARK  305  A    between atoms: _783  and  _784
REMARK  306  A    between atoms: _784  and  _785
REMARK                            x       y       z     vdW  Elec       q    Type
REMARK                         _______ _______ _______ _____ _____    ______ ____
ROOT
ATOM      1  O   HOH     1      29.539  -6.574  16.417  0.00  0.00    +0.000 OA
ENDROOT
TORSDOF 0
REMARK  Name = ../refined-set-2016/4ca7/4ca7_pocket.pdb
REMARK  306 active torsions:
REMARK  status: ('A' for Active; 'I' for Inactive)
REMARK    1  A    between atoms: _1  and  _3
REMARK    2  A    between atoms: _3  and  _4
REMARK    3  A    between atoms: _3  and  _6
REMARK    4  A    between atoms: _6  and  _7
REMARK    5  A    between atoms: _7  and  _8
REMARK    6  A    between atoms: _8  and  _9
REMARK    7  A    between atoms: _9  and  _10
REMARK    8  A    between atoms: _14  and  _16
REMARK    9  A    between atoms: _16  and  _17
REMARK   10  A    between atoms: _16  and  _19
REMARK   11  A    between atoms: _19  and  _20
REMARK   12  A    between atoms: _20  and  _21
REMARK   13  A    between atoms: _24  and  _26
REMARK   14  A    between atoms: _26  and  _27
REMARK   15  A    between atoms: _26  and  _29
REMARK   16  A    between atoms: _29  and  _30
REMARK   17  A    between atoms: _30  and  _31
REMARK   18  A    between atoms: _34  and  _36
REMARK   19  A    between atoms: _36  and  _37
REMARK   20  A    between atoms: _36  and  _39
REMARK   21  A    between atoms: _39  and  _40
REMARK   22  A    between atoms: _45  and  _47
REMARK   23  A    between atoms: _47  and  _48
REMARK   24  A    between atoms: _47  and  _50
REMARK   25  A    between atoms: _50  and  _51
REMARK   26  A    between atoms: _61  and  _63
REMARK   27  A    between atoms: _63  and  _64
REMARK   28  A    between atoms: _63  and  _66
REMARK   29  A    between atoms: _66  and  _67
REMARK   30  A    between atoms: _67  and  _68
REMARK   31  A    between atoms: _73  and  _75
REMARK   32  A    between atoms: _75  and  _76
REMARK   33  A    between atoms: _75  and  _78
REMARK   34  A    between atoms: _78  and  _79
REMARK   35  A    between atoms: _79  and  _80
REMARK   36  A    between atoms: _85  and  _87
REMARK   37  A    between atoms: _87  and  _88
REMARK   38  A    between atoms: _87  and  _90
REMARK   39  A    between atoms: _90  and  _91
REMARK   40  A    between atoms: _93  and  _95
REMARK   41  A    between atoms: _95  and  _96
REMARK   42  A    between atoms: _95  and  _98
REMARK   43  A    between atoms: _101  and  _103
REMARK   44  A    between atoms: _103  and  _104
REMARK   45  A    between atoms: _103  and  _106
REMARK   46  A    between atoms: _108  and  _110
REMARK   47  A    between atoms: _110  and  _111
REMARK   48  A    between atoms: _110  and  _113
REMARK   49  A    between atoms: _113  and  _114
REMARK   50  A    between atoms: _119  and  _121
REMARK   51  A    between atoms: _121  and  _122
REMARK   52  A    between atoms: _125  and  _127
REMARK   53  A    between atoms: _127  and  _128
REMARK   54  A    between atoms: _127  and  _130
REMARK   55  A    between atoms: _130  and  _131
REMARK   56  A    between atoms: _133  and  _135
REMARK   57  A    between atoms: _135  and  _136
REMARK   58  A    between atoms: _139  and  _141
REMARK   59  A    between atoms: _141  and  _142
REMARK   60  A    between atoms: _141  and  _144
REMARK   61  A    between atoms: _144  and  _145
REMARK   62  A    between atoms: _155  and  _157
REMARK   63  A    between atoms: _157  and  _158
REMARK   64  A    between atoms: _157  and  _160
REMARK   65  A    between atoms: _160  and  _161
REMARK   66  A    between atoms: _164  and  _166
REMARK   67  A    between atoms: _166  and  _167
REMARK   68  A    between atoms: _166  and  _169
REMARK   69  A    between atoms: _169  and  _170
REMARK   70  A    between atoms: _175  and  _176
REMARK   71  A    between atoms: _178  and  _180
REMARK   72  A    between atoms: _180  and  _181
REMARK   73  A    between atoms: _180  and  _183
REMARK   74  A    between atoms: _183  and  _184
REMARK   75  A    between atoms: _184  and  _185
REMARK   76  A    between atoms: _185  and  _186
REMARK   77  A    between atoms: _195  and  _197
REMARK   78  A    between atoms: _197  and  _198
REMARK   79  A    between atoms: _197  and  _200
REMARK   80  A    between atoms: _200  and  _201
REMARK   81  A    between atoms: _204  and  _206
REMARK   82  A    between atoms: _206  and  _207
REMARK   83  A    between atoms: _206  and  _209
REMARK   84  A    between atoms: _209  and  _210
REMARK   85  A    between atoms: _210  and  _211
REMARK   86  A    between atoms: _211  and  _212
REMARK   87  A    between atoms: _212  and  _213
REMARK   88  A    between atoms: _217  and  _219
REMARK   89  A    between atoms: _219  and  _220
REMARK   90  A    between atoms: _219  and  _222
REMARK   91  A    between atoms: _222  and  _223
REMARK   92  A    between atoms: _223  and  _224
REMARK   93  A    between atoms: _229  and  _231
REMARK   94  A    between atoms: _231  and  _232
REMARK   95  A    between atoms: _231  and  _234
REMARK   96  A    between atoms: _234  and  _235
REMARK   97  A    between atoms: _235  and  _236
REMARK   98  A    between atoms: _236  and  _237
REMARK   99  A    between atoms: _246  and  _248
REMARK  100  A    between atoms: _248  and  _249
REMARK  101  A    between atoms: _248  and  _251
REMARK  102  A    between atoms: _251  and  _252
REMARK  103  A    between atoms: _252  and  _253
REMARK  104  A    between atoms: _258  and  _260
REMARK  105  A    between atoms: _260  and  _261
REMARK  106  A    between atoms: _260  and  _263
REMARK  107  A    between atoms: _263  and  _264
REMARK  108  A    between atoms: _267  and  _269
REMARK  109  A    between atoms: _269  and  _270
REMARK  110  A    between atoms: _269  and  _272
REMARK  111  A    between atoms: _272  and  _273
REMARK  112  A    between atoms: _273  and  _274
REMARK  113  A    between atoms: _279  and  _281
REMARK  114  A    between atoms: _281  and  _282
REMARK  115  A    between atoms: _281  and  _284
REMARK  116  A    between atoms: _284  and  _285
REMARK  117  A    between atoms: _288  and  _290
REMARK  118  A    between atoms: _290  and  _291
REMARK  119  A    between atoms: _290  and  _293
REMARK  120  A    between atoms: _293  and  _294
REMARK  121  A    between atoms: _300  and  _302
REMARK  122  A    between atoms: _302  and  _303
REMARK  123  A    between atoms: _302  and  _305
REMARK  124  A    between atoms: _305  and  _306
REMARK  125  A    between atoms: _309  and  _311
REMARK  126  A    between atoms: _311  and  _312
REMARK  127  A    between atoms: _311  and  _314
REMARK  128  A    between atoms: _317  and  _319
REMARK  129  A    between atoms: _319  and  _320
REMARK  130  A    between atoms: _319  and  _322
REMARK  131  A    between atoms: _322  and  _323
REMARK  132  A    between atoms: _328  and  _330
REMARK  133  A    between atoms: _341  and  _344
REMARK  134  A    between atoms: _344  and  _345
REMARK  135  A    between atoms: _345  and  _346
REMARK  136  A    between atoms: _351  and  _354
REMARK  137  A    between atoms: _354  and  _355
REMARK  138  A    between atoms: _365  and  _366
REMARK  139  A    between atoms: _374  and  _376
REMARK  140  A    between atoms: _376  and  _377
REMARK  141  A    between atoms: _376  and  _379
REMARK  142  A    between atoms: _379  and  _380
REMARK  143  A    between atoms: _383  and  _385
REMARK  144  A    between atoms: _385  and  _386
REMARK  145  A    between atoms: _385  and  _388
REMARK  146  A    between atoms: _388  and  _389
REMARK  147  A    between atoms: _394  and  _395
REMARK  148  A    between atoms: _397  and  _399
REMARK  149  A    between atoms: _399  and  _400
REMARK  150  A    between atoms: _399  and  _402
REMARK  151  A    between atoms: _402  and  _403
REMARK  152  A    between atoms: _409  and  _411
REMARK  153  A    between atoms: _411  and  _412
REMARK  154  A    between atoms: _411  and  _414
REMARK  155  A    between atoms: _414  and  _415
REMARK  156  A    between atoms: _420  and  _421
REMARK  157  A    between atoms: _423  and  _425
REMARK  158  A    between atoms: _425  and  _426
REMARK  159  A    between atoms: _425  and  _428
REMARK  160  A    between atoms: _428  and  _429
REMARK  161  A    between atoms: _429  and  _430
REMARK  162  A    between atoms: _430  and  _431
REMARK  163  A    between atoms: _440  and  _442
REMARK  164  A    between atoms: _442  and  _443
REMARK  165  A    between atoms: _442  and  _445
REMARK  166  A    between atoms: _445  and  _446
REMARK  167  A    between atoms: _449  and  _451
REMARK  168  A    between atoms: _451  and  _452
REMARK  169  A    between atoms: _454  and  _456
REMARK  170  A    between atoms: _456  and  _457
REMARK  171  A    between atoms: _456  and  _459
REMARK  172  A    between atoms: _459  and  _460
REMARK  173  A    between atoms: _466  and  _467
REMARK  174  A    between atoms: _472  and  _474
REMARK  175  A    between atoms: _474  and  _475
REMARK  176  A    between atoms: _477  and  _479
REMARK  177  A    between atoms: _479  and  _480
REMARK  178  A    between atoms: _479  and  _482
REMARK  179  A    between atoms: _482  and  _483
REMARK  180  A    between atoms: _489  and  _491
REMARK  181  A    between atoms: _491  and  _492
REMARK  182  A    between atoms: _491  and  _494
REMARK  183  A    between atoms: _494  and  _495
REMARK  184  A    between atoms: _500  and  _502
REMARK  185  A    between atoms: _502  and  _503
REMARK  186  A    between atoms: _502  and  _505
REMARK  187  A    between atoms: _505  and  _506
REMARK  188  A    between atoms: _506  and  _507
REMARK  189  A    between atoms: _507  and  _508
REMARK  190  A    between atoms: _508  and  ZN_790
REMARK  191  A    between atoms: _510  and  _512
REMARK  192  A    between atoms: _512  and  _513
REMARK  193  A    between atoms: _516  and  _518
REMARK  194  A    between atoms: _518  and  _519
REMARK  195  A    between atoms: _521  and  _523
REMARK  196  A    between atoms: _523  and  _524
REMARK  197  A    between atoms: _523  and  _526
REMARK  198  A    between atoms: _526  and  _527
REMARK  199  A    between atoms: _530  and  _532
REMARK  200  A    between atoms: _532  and  _533
REMARK  201  A    between atoms: _532  and  _535
REMARK  202  A    between atoms: _538  and  _540
REMARK  203  A    between atoms: _540  and  _541
REMARK  204  A    between atoms: _540  and  _543
REMARK  205  A    between atoms: _543  and  _544
REMARK  206  A    between atoms: _546  and  _548
REMARK  207  A    between atoms: _548  and  _549
REMARK  208  A    between atoms: _548  and  _551
REMARK  209  A    between atoms: _551  and  _552
REMARK  210  A    between atoms: _555  and  _557
REMARK  211  A    between atoms: _557  and  _558
REMARK  212  A    between atoms: _557  and  _560
REMARK  213  A    between atoms: _560  and  _561
REMARK  214  A    between atoms: _563  and  _565
REMARK  215  A    between atoms: _565  and  _566
REMARK  216  A    between atoms: _565  and  _568
REMARK  217  A    between atoms: _568  and  _569
REMARK  218  A    between atoms: _572  and  _574
REMARK  219  A    between atoms: _574  and  _575
REMARK  220  A    between atoms: _574  and  _577
REMARK  221  A    between atoms: _577  and  _578
REMARK  222  A    between atoms: _578  and  _579
REMARK  223  A    between atoms: _579  and  _580
REMARK  224  A    between atoms: _580  and  _581
REMARK  225  A    between atoms: _585  and  _587
REMARK  226  A    between atoms: _587  and  _588
REMARK  227  A    between atoms: _587  and  _590
REMARK  228  A    between atoms: _590  and  _591
REMARK  229  A    between atoms: _597  and  _599
REMARK  230  A    between atoms: _599  and  _600
REMARK  231  A    between atoms: _599  and  _602
REMARK  232  A    between atoms: _602  and  _603
REMARK  233  A    between atoms: _609  and  _611
REMARK  234  A    between atoms: _611  and  _612
REMARK  235  A    between atoms: _615  and  _617
REMARK  236  A    between atoms: _617  and  _618
REMARK  237  A    between atoms: _617  and  _620
REMARK  238  A    between atoms: _620  and  _621
REMARK  239  A    between atoms: _621  and  _622
REMARK  240  A    between atoms: _624  and  _626
REMARK  241  A    between atoms: _626  and  _627
REMARK  242  A    between atoms: _626  and  _629
REMARK  243  A    between atoms: _629  and  _630
REMARK  244  A    between atoms: _630  and  _631
REMARK  245  A    between atoms: _631  and  _632
REMARK  246  A    between atoms: _632  and  _633
REMARK  247  A    between atoms: _637  and  _639
REMARK  248  A    between atoms: _639  and  _640
REMARK  249  A    between atoms: _639  and  _642
REMARK  250  A    between atoms: _642  and  _643
REMARK  251  A    between atoms: _648  and  _649
REMARK  252  A    between atoms: _651  and  _653
REMARK  253  A    between atoms: _653  and  _654
REMARK  254  A    between atoms: _653  and  _656
REMARK  255  A    between atoms: _656  and  _657
REMARK  256  A    between atoms: _662  and  _664
REMARK  257  A    between atoms: _664  and  _665
REMARK  258  A    between atoms: _664  and  _667
REMARK  259  A    between atoms: _667  and  _668
REMARK  260  A    between atoms: _671  and  _673
REMARK  261  A    between atoms: _673  and  _674
REMARK  262  A    between atoms: _677  and  _679
REMARK  263  A    between atoms: _679  and  _680
REMARK  264  A    between atoms: _679  and  _682
REMARK  265  A    between atoms: _682  and  _683
REMARK  266  A    between atoms: _686  and  _688
REMARK  267  A    between atoms: _688  and  _689
REMARK  268  A    between atoms: _688  and  _691
REMARK  269  A    between atoms: _694  and  _696
REMARK  270  A    between atoms: _696  and  _697
REMARK  271  A    between atoms: _696  and  _699
REMARK  272  A    between atoms: _699  and  _700
REMARK  273  A    between atoms: _700  and  _701
REMARK  274  A    between atoms: _704  and  _706
REMARK  275  A    between atoms: _706  and  _707
REMARK  276  A    between atoms: _706  and  _709
REMARK  277  A    between atoms: _709  and  _710
REMARK  278  A    between atoms: _715  and  _716
REMARK  279  A    between atoms: _718  and  _720
REMARK  280  A    between atoms: _720  and  _721
REMARK  281  A    between atoms: _720  and  _723
REMARK  282  A    between atoms: _723  and  _724
REMARK  283  A    between atoms: _724  and  _725
REMARK  284  A    between atoms: _725  and  _726
REMARK  285  A    between atoms: _735  and  _737
REMARK  286  A    between atoms: _737  and  _738
REMARK  287  A    between atoms: _737  and  _740
REMARK  288  A    between atoms: _740  and  _741
REMARK  289  A    between atoms: _746  and  _747
REMARK  290  A    between atoms: _749  and  _751
REMARK  291  A    between atoms: _751  and  _752
REMARK  292  A    between atoms: _751  and  _754
REMARK  293  A    between atoms: _754  and  _755
REMARK  294  A    between atoms: _758  and  _760
REMARK  295  A    between atoms: _760  and  _761
REMARK  296  A    between atoms: _760  and  _763
REMARK  297  A    between atoms: _763  and  _764
REMARK  298  A    between atoms: _766  and  _768
REMARK  299  A    between atoms: _768  and  _769
REMARK  300  A    between atoms: _768  and  _771
REMARK  301  A    between atoms: _771  and  _772
REMARK  302  A    between atoms: _778  and  _780
REMARK  303  A    between atoms: _780  and  _781
REMARK  304  A    between atoms: _780  and  _783
REMARK  305  A    between atoms: _783  and  _784
REMARK  306  A    between atoms: _784  and  _785
REMARK                            x       y       z     vdW  Elec       q    Type
REMARK                         _______ _______ _______ _____ _____    ______ ____
ROOT
ATOM      1  O   HOH     1      29.057   1.133  13.433  0.00  0.00    +0.000 OA
ENDROOT
TORSDOF 0
REMARK  Name = ../refined-set-2016/4ca7/4ca7_pocket.pdb
REMARK  306 active torsions:
REMARK  status: ('A' for Active; 'I' for Inactive)
REMARK    1  A    between atoms: _1  and  _3
REMARK    2  A    between atoms: _3  and  _4
REMARK    3  A    between atoms: _3  and  _6
REMARK    4  A    between atoms: _6  and  _7
REMARK    5  A    between atoms: _7  and  _8
REMARK    6  A    between atoms: _8  and  _9
REMARK    7  A    between atoms: _9  and  _10
REMARK    8  A    between atoms: _14  and  _16
REMARK    9  A    between atoms: _16  and  _17
REMARK   10  A    between atoms: _16  and  _19
REMARK   11  A    between atoms: _19  and  _20
REMARK   12  A    between atoms: _20  and  _21
REMARK   13  A    between atoms: _24  and  _26
REMARK   14  A    between atoms: _26  and  _27
REMARK   15  A    between atoms: _26  and  _29
REMARK   16  A    between atoms: _29  and  _30
REMARK   17  A    between atoms: _30  and  _31
REMARK   18  A    between atoms: _34  and  _36
REMARK   19  A    between atoms: _36  and  _37
REMARK   20  A    between atoms: _36  and  _39
REMARK   21  A    between atoms: _39  and  _40
REMARK   22  A    between atoms: _45  and  _47
REMARK   23  A    between atoms: _47  and  _48
REMARK   24  A    between atoms: _47  and  _50
REMARK   25  A    between atoms: _50  and  _51
REMARK   26  A    between atoms: _61  and  _63
REMARK   27  A    between atoms: _63  and  _64
REMARK   28  A    between atoms: _63  and  _66
REMARK   29  A    between atoms: _66  and  _67
REMARK   30  A    between atoms: _67  and  _68
REMARK   31  A    between atoms: _73  and  _75
REMARK   32  A    between atoms: _75  and  _76
REMARK   33  A    between atoms: _75  and  _78
REMARK   34  A    between atoms: _78  and  _79
REMARK   35  A    between atoms: _79  and  _80
REMARK   36  A    between atoms: _85  and  _87
REMARK   37  A    between atoms: _87  and  _88
REMARK   38  A    between atoms: _87  and  _90
REMARK   39  A    between atoms: _90  and  _91
REMARK   40  A    between atoms: _93  and  _95
REMARK   41  A    between atoms: _95  and  _96
REMARK   42  A    between atoms: _95  and  _98
REMARK   43  A    between atoms: _101  and  _103
REMARK   44  A    between atoms: _103  and  _104
REMARK   45  A    between atoms: _103  and  _106
REMARK   46  A    between atoms: _108  and  _110
REMARK   47  A    between atoms: _110  and  _111
REMARK   48  A    between atoms: _110  and  _113
REMARK   49  A    between atoms: _113  and  _114
REMARK   50  A    between atoms: _119  and  _121
REMARK   51  A    between atoms: _121  and  _122
REMARK   52  A    between atoms: _125  and  _127
REMARK   53  A    between atoms: _127  and  _128
REMARK   54  A    between atoms: _127  and  _130
REMARK   55  A    between atoms: _130  and  _131
REMARK   56  A    between atoms: _133  and  _135
REMARK   57  A    between atoms: _135  and  _136
REMARK   58  A    between atoms: _139  and  _141
REMARK   59  A    between atoms: _141  and  _142
REMARK   60  A    between atoms: _141  and  _144
REMARK   61  A    between atoms: _144  and  _145
REMARK   62  A    between atoms: _155  and  _157
REMARK   63  A    between atoms: _157  and  _158
REMARK   64  A    between atoms: _157  and  _160
REMARK   65  A    between atoms: _160  and  _161
REMARK   66  A    between atoms: _164  and  _166
REMARK   67  A    between atoms: _166  and  _167
REMARK   68  A    between atoms: _166  and  _169
REMARK   69  A    between atoms: _169  and  _170
REMARK   70  A    between atoms: _175  and  _176
REMARK   71  A    between atoms: _178  and  _180
REMARK   72  A    between atoms: _180  and  _181
REMARK   73  A    between atoms: _180  and  _183
REMARK   74  A    between atoms: _183  and  _184
REMARK   75  A    between atoms: _184  and  _185
REMARK   76  A    between atoms: _185  and  _186
REMARK   77  A    between atoms: _195  and  _197
REMARK   78  A    between atoms: _197  and  _198
REMARK   79  A    between atoms: _197  and  _200
REMARK   80  A    between atoms: _200  and  _201
REMARK   81  A    between atoms: _204  and  _206
REMARK   82  A    between atoms: _206  and  _207
REMARK   83  A    between atoms: _206  and  _209
REMARK   84  A    between atoms: _209  and  _210
REMARK   85  A    between atoms: _210  and  _211
REMARK   86  A    between atoms: _211  and  _212
REMARK   87  A    between atoms: _212  and  _213
REMARK   88  A    between atoms: _217  and  _219
REMARK   89  A    between atoms: _219  and  _220
REMARK   90  A    between atoms: _219  and  _222
REMARK   91  A    between atoms: _222  and  _223
REMARK   92  A    between atoms: _223  and  _224
REMARK   93  A    between atoms: _229  and  _231
REMARK   94  A    between atoms: _231  and  _232
REMARK   95  A    between atoms: _231  and  _234
REMARK   96  A    between atoms: _234  and  _235
REMARK   97  A    between atoms: _235  and  _236
REMARK   98  A    between atoms: _236  and  _237
REMARK   99  A    between atoms: _246  and  _248
REMARK  100  A    between atoms: _248  and  _249
REMARK  101  A    between atoms: _248  and  _251
REMARK  102  A    between atoms: _251  and  _252
REMARK  103  A    between atoms: _252  and  _253
REMARK  104  A    between atoms: _258  and  _260
REMARK  105  A    between atoms: _260  and  _261
REMARK  106  A    between atoms: _260  and  _263
REMARK  107  A    between atoms: _263  and  _264
REMARK  108  A    between atoms: _267  and  _269
REMARK  109  A    between atoms: _269  and  _270
REMARK  110  A    between atoms: _269  and  _272
REMARK  111  A    between atoms: _272  and  _273
REMARK  112  A    between atoms: _273  and  _274
REMARK  113  A    between atoms: _279  and  _281
REMARK  114  A    between atoms: _281  and  _282
REMARK  115  A    between atoms: _281  and  _284
REMARK  116  A    between atoms: _284  and  _285
REMARK  117  A    between atoms: _288  and  _290
REMARK  118  A    between atoms: _290  and  _291
REMARK  119  A    between atoms: _290  and  _293
REMARK  120  A    between atoms: _293  and  _294
REMARK  121  A    between atoms: _300  and  _302
REMARK  122  A    between atoms: _302  and  _303
REMARK  123  A    between atoms: _302  and  _305
REMARK  124  A    between atoms: _305  and  _306
REMARK  125  A    between atoms: _309  and  _311
REMARK  126  A    between atoms: _311  and  _312
REMARK  127  A    between atoms: _311  and  _314
REMARK  128  A    between atoms: _317  and  _319
REMARK  129  A    between atoms: _319  and  _320
REMARK  130  A    between atoms: _319  and  _322
REMARK  131  A    between atoms: _322  and  _323
REMARK  132  A    between atoms: _328  and  _330
REMARK  133  A    between atoms: _341  and  _344
REMARK  134  A    between atoms: _344  and  _345
REMARK  135  A    between atoms: _345  and  _346
REMARK  136  A    between atoms: _351  and  _354
REMARK  137  A    between atoms: _354  and  _355
REMARK  138  A    between atoms: _365  and  _366
REMARK  139  A    between atoms: _374  and  _376
REMARK  140  A    between atoms: _376  and  _377
REMARK  141  A    between atoms: _376  and  _379
REMARK  142  A    between atoms: _379  and  _380
REMARK  143  A    between atoms: _383  and  _385
REMARK  144  A    between atoms: _385  and  _386
REMARK  145  A    between atoms: _385  and  _388
REMARK  146  A    between atoms: _388  and  _389
REMARK  147  A    between atoms: _394  and  _395
REMARK  148  A    between atoms: _397  and  _399
REMARK  149  A    between atoms: _399  and  _400
REMARK  150  A    between atoms: _399  and  _402
REMARK  151  A    between atoms: _402  and  _403
REMARK  152  A    between atoms: _409  and  _411
REMARK  153  A    between atoms: _411  and  _412
REMARK  154  A    between atoms: _411  and  _414
REMARK  155  A    between atoms: _414  and  _415
REMARK  156  A    between atoms: _420  and  _421
REMARK  157  A    between atoms: _423  and  _425
REMARK  158  A    between atoms: _425  and  _426
REMARK  159  A    between atoms: _425  and  _428
REMARK  160  A    between atoms: _428  and  _429
REMARK  161  A    between atoms: _429  and  _430
REMARK  162  A    between atoms: _430  and  _431
REMARK  163  A    between atoms: _440  and  _442
REMARK  164  A    between atoms: _442  and  _443
REMARK  165  A    between atoms: _442  and  _445
REMARK  166  A    between atoms: _445  and  _446
REMARK  167  A    between atoms: _449  and  _451
REMARK  168  A    between atoms: _451  and  _452
REMARK  169  A    between atoms: _454  and  _456
REMARK  170  A    between atoms: _456  and  _457
REMARK  171  A    between atoms: _456  and  _459
REMARK  172  A    between atoms: _459  and  _460
REMARK  173  A    between atoms: _466  and  _467
REMARK  174  A    between atoms: _472  and  _474
REMARK  175  A    between atoms: _474  and  _475
REMARK  176  A    between atoms: _477  and  _479
REMARK  177  A    between atoms: _479  and  _480
REMARK  178  A    between atoms: _479  and  _482
REMARK  179  A    between atoms: _482  and  _483
REMARK  180  A    between atoms: _489  and  _491
REMARK  181  A    between atoms: _491  and  _492
REMARK  182  A    between atoms: _491  and  _494
REMARK  183  A    between atoms: _494  and  _495
REMARK  184  A    between atoms: _500  and  _502
REMARK  185  A    between atoms: _502  and  _503
REMARK  186  A    between atoms: _502  and  _505
REMARK  187  A    between atoms: _505  and  _506
REMARK  188  A    between atoms: _506  and  _507
REMARK  189  A    between atoms: _507  and  _508
REMARK  190  A    between atoms: _508  and  ZN_790
REMARK  191  A    between atoms: _510  and  _512
REMARK  192  A    between atoms: _512  and  _513
REMARK  193  A    between atoms: _516  and  _518
REMARK  194  A    between atoms: _518  and  _519
REMARK  195  A    between atoms: _521  and  _523
REMARK  196  A    between atoms: _523  and  _524
REMARK  197  A    between atoms: _523  and  _526
REMARK  198  A    between atoms: _526  and  _527
REMARK  199  A    between atoms: _530  and  _532
REMARK  200  A    between atoms: _532  and  _533
REMARK  201  A    between atoms: _532  and  _535
REMARK  202  A    between atoms: _538  and  _540
REMARK  203  A    between atoms: _540  and  _541
REMARK  204  A    between atoms: _540  and  _543
REMARK  205  A    between atoms: _543  and  _544
REMARK  206  A    between atoms: _546  and  _548
REMARK  207  A    between atoms: _548  and  _549
REMARK  208  A    between atoms: _548  and  _551
REMARK  209  A    between atoms: _551  and  _552
REMARK  210  A    between atoms: _555  and  _557
REMARK  211  A    between atoms: _557  and  _558
REMARK  212  A    between atoms: _557  and  _560
REMARK  213  A    between atoms: _560  and  _561
REMARK  214  A    between atoms: _563  and  _565
REMARK  215  A    between atoms: _565  and  _566
REMARK  216  A    between atoms: _565  and  _568
REMARK  217  A    between atoms: _568  and  _569
REMARK  218  A    between atoms: _572  and  _574
REMARK  219  A    between atoms: _574  and  _575
REMARK  220  A    between atoms: _574  and  _577
REMARK  221  A    between atoms: _577  and  _578
REMARK  222  A    between atoms: _578  and  _579
REMARK  223  A    between atoms: _579  and  _580
REMARK  224  A    between atoms: _580  and  _581
REMARK  225  A    between atoms: _585  and  _587
REMARK  226  A    between atoms: _587  and  _588
REMARK  227  A    between atoms: _587  and  _590
REMARK  228  A    between atoms: _590  and  _591
REMARK  229  A    between atoms: _597  and  _599
REMARK  230  A    between atoms: _599  and  _600
REMARK  231  A    between atoms: _599  and  _602
REMARK  232  A    between atoms: _602  and  _603
REMARK  233  A    between atoms: _609  and  _611
REMARK  234  A    between atoms: _611  and  _612
REMARK  235  A    between atoms: _615  and  _617
REMARK  236  A    between atoms: _617  and  _618
REMARK  237  A    between atoms: _617  and  _620
REMARK  238  A    between atoms: _620  and  _621
REMARK  239  A    between atoms: _621  and  _622
REMARK  240  A    between atoms: _624  and  _626
REMARK  241  A    between atoms: _626  and  _627
REMARK  242  A    between atoms: _626  and  _629
REMARK  243  A    between atoms: _629  and  _630
REMARK  244  A    between atoms: _630  and  _631
REMARK  245  A    between atoms: _631  and  _632
REMARK  246  A    between atoms: _632  and  _633
REMARK  247  A    between atoms: _637  and  _639
REMARK  248  A    between atoms: _639  and  _640
REMARK  249  A    between atoms: _639  and  _642
REMARK  250  A    between atoms: _642  and  _643
REMARK  251  A    between atoms: _648  and  _649
REMARK  252  A    between atoms: _651  and  _653
REMARK  253  A    between atoms: _653  and  _654
REMARK  254  A    between atoms: _653  and  _656
REMARK  255  A    between atoms: _656  and  _657
REMARK  256  A    between atoms: _662  and  _664
REMARK  257  A    between atoms: _664  and  _665
REMARK  258  A    between atoms: _664  and  _667
REMARK  259  A    between atoms: _667  and  _668
REMARK  260  A    between atoms: _671  and  _673
REMARK  261  A    between atoms: _673  and  _674
REMARK  262  A    between atoms: _677  and  _679
REMARK  263  A    between atoms: _679  and  _680
REMARK  264  A    between atoms: _679  and  _682
REMARK  265  A    between atoms: _682  and  _683
REMARK  266  A    between atoms: _686  and  _688
REMARK  267  A    between atoms: _688  and  _689
REMARK  268  A    between atoms: _688  and  _691
REMARK  269  A    between atoms: _694  and  _696
REMARK  270  A    between atoms: _696  and  _697
REMARK  271  A    between atoms: _696  and  _699
REMARK  272  A    between atoms: _699  and  _700
REMARK  273  A    between atoms: _700  and  _701
REMARK  274  A    between atoms: _704  and  _706
REMARK  275  A    between atoms: _706  and  _707
REMARK  276  A    between atoms: _706  and  _709
REMARK  277  A    between atoms: _709  and  _710
REMARK  278  A    between atoms: _715  and  _716
REMARK  279  A    between atoms: _718  and  _720
REMARK  280  A    between atoms: _720  and  _721
REMARK  281  A    between atoms: _720  and  _723
REMARK  282  A    between atoms: _723  and  _724
REMARK  283  A    between atoms: _724  and  _725
REMARK  284  A    between atoms: _725  and  _726
REMARK  285  A    between atoms: _735  and  _737
REMARK  286  A    between atoms: _737  and  _738
REMARK  287  A    between atoms: _737  and  _740
REMARK  288  A    between atoms: _740  and  _741
REMARK  289  A    between atoms: _746  and  _747
REMARK  290  A    between atoms: _749  and  _751
REMARK  291  A    between atoms: _751  and  _752
REMARK  292  A    between atoms: _751  and  _754
REMARK  293  A    between atoms: _754  and  _755
REMARK  294  A    between atoms: _758  and  _760
REMARK  295  A    between atoms: _760  and  _761
REMARK  296  A    between atoms: _760  and  _763
REMARK  297  A    between atoms: _763  and  _764
REMARK  298  A    between atoms: _766  and  _768
REMARK  299  A    between atoms: _768  and  _769
REMARK  300  A    between atoms: _768  and  _771
REMARK  301  A    between atoms: _771  and  _772
REMARK  302  A    between atoms: _778  and  _780
REMARK  303  A    between atoms: _780  and  _781
REMARK  304  A    between atoms: _780  and  _783
REMARK  305  A    between atoms: _783  and  _784
REMARK  306  A    between atoms: _784  and  _785
REMARK                            x       y       z     vdW  Elec       q    Type
REMARK                         _______ _______ _______ _____ _____    ______ ____
ROOT
ATOM      1  O   HOH     1      27.085 -12.944  16.134  0.00  0.00    +0.000 OA
ENDROOT
TORSDOF 0
REMARK  Name = ../refined-set-2016/4ca7/4ca7_pocket.pdb
REMARK  306 active torsions:
REMARK  status: ('A' for Active; 'I' for Inactive)
REMARK    1  A    between atoms: _1  and  _3
REMARK    2  A    between atoms: _3  and  _4
REMARK    3  A    between atoms: _3  and  _6
REMARK    4  A    between atoms: _6  and  _7
REMARK    5  A    between atoms: _7  and  _8
REMARK    6  A    between atoms: _8  and  _9
REMARK    7  A    between atoms: _9  and  _10
REMARK    8  A    between atoms: _14  and  _16
REMARK    9  A    between atoms: _16  and  _17
REMARK   10  A    between atoms: _16  and  _19
REMARK   11  A    between atoms: _19  and  _20
REMARK   12  A    between atoms: _20  and  _21
REMARK   13  A    between atoms: _24  and  _26
REMARK   14  A    between atoms: _26  and  _27
REMARK   15  A    between atoms: _26  and  _29
REMARK   16  A    between atoms: _29  and  _30
REMARK   17  A    between atoms: _30  and  _31
REMARK   18  A    between atoms: _34  and  _36
REMARK   19  A    between atoms: _36  and  _37
REMARK   20  A    between atoms: _36  and  _39
REMARK   21  A    between atoms: _39  and  _40
REMARK   22  A    between atoms: _45  and  _47
REMARK   23  A    between atoms: _47  and  _48
REMARK   24  A    between atoms: _47  and  _50
REMARK   25  A    between atoms: _50  and  _51
REMARK   26  A    between atoms: _61  and  _63
REMARK   27  A    between atoms: _63  and  _64
REMARK   28  A    between atoms: _63  and  _66
REMARK   29  A    between atoms: _66  and  _67
REMARK   30  A    between atoms: _67  and  _68
REMARK   31  A    between atoms: _73  and  _75
REMARK   32  A    between atoms: _75  and  _76
REMARK   33  A    between atoms: _75  and  _78
REMARK   34  A    between atoms: _78  and  _79
REMARK   35  A    between atoms: _79  and  _80
REMARK   36  A    between atoms: _85  and  _87
REMARK   37  A    between atoms: _87  and  _88
REMARK   38  A    between atoms: _87  and  _90
REMARK   39  A    between atoms: _90  and  _91
REMARK   40  A    between atoms: _93  and  _95
REMARK   41  A    between atoms: _95  and  _96
REMARK   42  A    between atoms: _95  and  _98
REMARK   43  A    between atoms: _101  and  _103
REMARK   44  A    between atoms: _103  and  _104
REMARK   45  A    between atoms: _103  and  _106
REMARK   46  A    between atoms: _108  and  _110
REMARK   47  A    between atoms: _110  and  _111
REMARK   48  A    between atoms: _110  and  _113
REMARK   49  A    between atoms: _113  and  _114
REMARK   50  A    between atoms: _119  and  _121
REMARK   51  A    between atoms: _121  and  _122
REMARK   52  A    between atoms: _125  and  _127
REMARK   53  A    between atoms: _127  and  _128
REMARK   54  A    between atoms: _127  and  _130
REMARK   55  A    between atoms: _130  and  _131
REMARK   56  A    between atoms: _133  and  _135
REMARK   57  A    between atoms: _135  and  _136
REMARK   58  A    between atoms: _139  and  _141
REMARK   59  A    between atoms: _141  and  _142
REMARK   60  A    between atoms: _141  and  _144
REMARK   61  A    between atoms: _144  and  _145
REMARK   62  A    between atoms: _155  and  _157
REMARK   63  A    between atoms: _157  and  _158
REMARK   64  A    between atoms: _157  and  _160
REMARK   65  A    between atoms: _160  and  _161
REMARK   66  A    between atoms: _164  and  _166
REMARK   67  A    between atoms: _166  and  _167
REMARK   68  A    between atoms: _166  and  _169
REMARK   69  A    between atoms: _169  and  _170
REMARK   70  A    between atoms: _175  and  _176
REMARK   71  A    between atoms: _178  and  _180
REMARK   72  A    between atoms: _180  and  _181
REMARK   73  A    between atoms: _180  and  _183
REMARK   74  A    between atoms: _183  and  _184
REMARK   75  A    between atoms: _184  and  _185
REMARK   76  A    between atoms: _185  and  _186
REMARK   77  A    between atoms: _195  and  _197
REMARK   78  A    between atoms: _197  and  _198
REMARK   79  A    between atoms: _197  and  _200
REMARK   80  A    between atoms: _200  and  _201
REMARK   81  A    between atoms: _204  and  _206
REMARK   82  A    between atoms: _206  and  _207
REMARK   83  A    between atoms: _206  and  _209
REMARK   84  A    between atoms: _209  and  _210
REMARK   85  A    between atoms: _210  and  _211
REMARK   86  A    between atoms: _211  and  _212
REMARK   87  A    between atoms: _212  and  _213
REMARK   88  A    between atoms: _217  and  _219
REMARK   89  A    between atoms: _219  and  _220
REMARK   90  A    between atoms: _219  and  _222
REMARK   91  A    between atoms: _222  and  _223
REMARK   92  A    between atoms: _223  and  _224
REMARK   93  A    between atoms: _229  and  _231
REMARK   94  A    between atoms: _231  and  _232
REMARK   95  A    between atoms: _231  and  _234
REMARK   96  A    between atoms: _234  and  _235
REMARK   97  A    between atoms: _235  and  _236
REMARK   98  A    between atoms: _236  and  _237
REMARK   99  A    between atoms: _246  and  _248
REMARK  100  A    between atoms: _248  and  _249
REMARK  101  A    between atoms: _248  and  _251
REMARK  102  A    between atoms: _251  and  _252
REMARK  103  A    between atoms: _252  and  _253
REMARK  104  A    between atoms: _258  and  _260
REMARK  105  A    between atoms: _260  and  _261
REMARK  106  A    between atoms: _260  and  _263
REMARK  107  A    between atoms: _263  and  _264
REMARK  108  A    between atoms: _267  and  _269
REMARK  109  A    between atoms: _269  and  _270
REMARK  110  A    between atoms: _269  and  _272
REMARK  111  A    between atoms: _272  and  _273
REMARK  112  A    between atoms: _273  and  _274
REMARK  113  A    between atoms: _279  and  _281
REMARK  114  A    between atoms: _281  and  _282
REMARK  115  A    between atoms: _281  and  _284
REMARK  116  A    between atoms: _284  and  _285
REMARK  117  A    between atoms: _288  and  _290
REMARK  118  A    between atoms: _290  and  _291
REMARK  119  A    between atoms: _290  and  _293
REMARK  120  A    between atoms: _293  and  _294
REMARK  121  A    between atoms: _300  and  _302
REMARK  122  A    between atoms: _302  and  _303
REMARK  123  A    between atoms: _302  and  _305
REMARK  124  A    between atoms: _305  and  _306
REMARK  125  A    between atoms: _309  and  _311
REMARK  126  A    between atoms: _311  and  _312
REMARK  127  A    between atoms: _311  and  _314
REMARK  128  A    between atoms: _317  and  _319
REMARK  129  A    between atoms: _319  and  _320
REMARK  130  A    between atoms: _319  and  _322
REMARK  131  A    between atoms: _322  and  _323
REMARK  132  A    between atoms: _328  and  _330
REMARK  133  A    between atoms: _341  and  _344
REMARK  134  A    between atoms: _344  and  _345
REMARK  135  A    between atoms: _345  and  _346
REMARK  136  A    between atoms: _351  and  _354
REMARK  137  A    between atoms: _354  and  _355
REMARK  138  A    between atoms: _365  and  _366
REMARK  139  A    between atoms: _374  and  _376
REMARK  140  A    between atoms: _376  and  _377
REMARK  141  A    between atoms: _376  and  _379
REMARK  142  A    between atoms: _379  and  _380
REMARK  143  A    between atoms: _383  and  _385
REMARK  144  A    between atoms: _385  and  _386
REMARK  145  A    between atoms: _385  and  _388
REMARK  146  A    between atoms: _388  and  _389
REMARK  147  A    between atoms: _394  and  _395
REMARK  148  A    between atoms: _397  and  _399
REMARK  149  A    between atoms: _399  and  _400
REMARK  150  A    between atoms: _399  and  _402
REMARK  151  A    between atoms: _402  and  _403
REMARK  152  A    between atoms: _409  and  _411
REMARK  153  A    between atoms: _411  and  _412
REMARK  154  A    between atoms: _411  and  _414
REMARK  155  A    between atoms: _414  and  _415
REMARK  156  A    between atoms: _420  and  _421
REMARK  157  A    between atoms: _423  and  _425
REMARK  158  A    between atoms: _425  and  _426
REMARK  159  A    between atoms: _425  and  _428
REMARK  160  A    between atoms: _428  and  _429
REMARK  161  A    between atoms: _429  and  _430
REMARK  162  A    between atoms: _430  and  _431
REMARK  163  A    between atoms: _440  and  _442
REMARK  164  A    between atoms: _442  and  _443
REMARK  165  A    between atoms: _442  and  _445
REMARK  166  A    between atoms: _445  and  _446
REMARK  167  A    between atoms: _449  and  _451
REMARK  168  A    between atoms: _451  and  _452
REMARK  169  A    between atoms: _454  and  _456
REMARK  170  A    between atoms: _456  and  _457
REMARK  171  A    between atoms: _456  and  _459
REMARK  172  A    between atoms: _459  and  _460
REMARK  173  A    between atoms: _466  and  _467
REMARK  174  A    between atoms: _472  and  _474
REMARK  175  A    between atoms: _474  and  _475
REMARK  176  A    between atoms: _477  and  _479
REMARK  177  A    between atoms: _479  and  _480
REMARK  178  A    between atoms: _479  and  _482
REMARK  179  A    between atoms: _482  and  _483
REMARK  180  A    between atoms: _489  and  _491
REMARK  181  A    between atoms: _491  and  _492
REMARK  182  A    between atoms: _491  and  _494
REMARK  183  A    between atoms: _494  and  _495
REMARK  184  A    between atoms: _500  and  _502
REMARK  185  A    between atoms: _502  and  _503
REMARK  186  A    between atoms: _502  and  _505
REMARK  187  A    between atoms: _505  and  _506
REMARK  188  A    between atoms: _506  and  _507
REMARK  189  A    between atoms: _507  and  _508
REMARK  190  A    between atoms: _508  and  ZN_790
REMARK  191  A    between atoms: _510  and  _512
REMARK  192  A    between atoms: _512  and  _513
REMARK  193  A    between atoms: _516  and  _518
REMARK  194  A    between atoms: _518  and  _519
REMARK  195  A    between atoms: _521  and  _523
REMARK  196  A    between atoms: _523  and  _524
REMARK  197  A    between atoms: _523  and  _526
REMARK  198  A    between atoms: _526  and  _527
REMARK  199  A    between atoms: _530  and  _532
REMARK  200  A    between atoms: _532  and  _533
REMARK  201  A    between atoms: _532  and  _535
REMARK  202  A    between atoms: _538  and  _540
REMARK  203  A    between atoms: _540  and  _541
REMARK  204  A    between atoms: _540  and  _543
REMARK  205  A    between atoms: _543  and  _544
REMARK  206  A    between atoms: _546  and  _548
REMARK  207  A    between atoms: _548  and  _549
REMARK  208  A    between atoms: _548  and  _551
REMARK  209  A    between atoms: _551  and  _552
REMARK  210  A    between atoms: _555  and  _557
REMARK  211  A    between atoms: _557  and  _558
REMARK  212  A    between atoms: _557  and  _560
REMARK  213  A    between atoms: _560  and  _561
REMARK  214  A    between atoms: _563  and  _565
REMARK  215  A    between atoms: _565  and  _566
REMARK  216  A    between atoms: _565  and  _568
REMARK  217  A    between atoms: _568  and  _569
REMARK  218  A    between atoms: _572  and  _574
REMARK  219  A    between atoms: _574  and  _575
REMARK  220  A    between atoms: _574  and  _577
REMARK  221  A    between atoms: _577  and  _578
REMARK  222  A    between atoms: _578  and  _579
REMARK  223  A    between atoms: _579  and  _580
REMARK  224  A    between atoms: _580  and  _581
REMARK  225  A    between atoms: _585  and  _587
REMARK  226  A    between atoms: _587  and  _588
REMARK  227  A    between atoms: _587  and  _590
REMARK  228  A    between atoms: _590  and  _591
REMARK  229  A    between atoms: _597  and  _599
REMARK  230  A    between atoms: _599  and  _600
REMARK  231  A    between atoms: _599  and  _602
REMARK  232  A    between atoms: _602  and  _603
REMARK  233  A    between atoms: _609  and  _611
REMARK  234  A    between atoms: _611  and  _612
REMARK  235  A    between atoms: _615  and  _617
REMARK  236  A    between atoms: _617  and  _618
REMARK  237  A    between atoms: _617  and  _620
REMARK  238  A    between atoms: _620  and  _621
REMARK  239  A    between atoms: _621  and  _622
REMARK  240  A    between atoms: _624  and  _626
REMARK  241  A    between atoms: _626  and  _627
REMARK  242  A    between atoms: _626  and  _629
REMARK  243  A    between atoms: _629  and  _630
REMARK  244  A    between atoms: _630  and  _631
REMARK  245  A    between atoms: _631  and  _632
REMARK  246  A    between atoms: _632  and  _633
REMARK  247  A    between atoms: _637  and  _639
REMARK  248  A    between atoms: _639  and  _640
REMARK  249  A    between atoms: _639  and  _642
REMARK  250  A    between atoms: _642  and  _643
REMARK  251  A    between atoms: _648  and  _649
REMARK  252  A    between atoms: _651  and  _653
REMARK  253  A    between atoms: _653  and  _654
REMARK  254  A    between atoms: _653  and  _656
REMARK  255  A    between atoms: _656  and  _657
REMARK  256  A    between atoms: _662  and  _664
REMARK  257  A    between atoms: _664  and  _665
REMARK  258  A    between atoms: _664  and  _667
REMARK  259  A    between atoms: _667  and  _668
REMARK  260  A    between atoms: _671  and  _673
REMARK  261  A    between atoms: _673  and  _674
REMARK  262  A    between atoms: _677  and  _679
REMARK  263  A    between atoms: _679  and  _680
REMARK  264  A    between atoms: _679  and  _682
REMARK  265  A    between atoms: _682  and  _683
REMARK  266  A    between atoms: _686  and  _688
REMARK  267  A    between atoms: _688  and  _689
REMARK  268  A    between atoms: _688  and  _691
REMARK  269  A    between atoms: _694  and  _696
REMARK  270  A    between atoms: _696  and  _697
REMARK  271  A    between atoms: _696  and  _699
REMARK  272  A    between atoms: _699  and  _700
REMARK  273  A    between atoms: _700  and  _701
REMARK  274  A    between atoms: _704  and  _706
REMARK  275  A    between atoms: _706  and  _707
REMARK  276  A    between atoms: _706  and  _709
REMARK  277  A    between atoms: _709  and  _710
REMARK  278  A    between atoms: _715  and  _716
REMARK  279  A    between atoms: _718  and  _720
REMARK  280  A    between atoms: _720  and  _721
REMARK  281  A    between atoms: _720  and  _723
REMARK  282  A    between atoms: _723  and  _724
REMARK  283  A    between atoms: _724  and  _725
REMARK  284  A    between atoms: _725  and  _726
REMARK  285  A    between atoms: _735  and  _737
REMARK  286  A    between atoms: _737  and  _738
REMARK  287  A    between atoms: _737  and  _740
REMARK  288  A    between atoms: _740  and  _741
REMARK  289  A    between atoms: _746  and  _747
REMARK  290  A    between atoms: _749  and  _751
REMARK  291  A    between atoms: _751  and  _752
REMARK  292  A    between atoms: _751  and  _754
REMARK  293  A    between atoms: _754  and  _755
REMARK  294  A    between atoms: _758  and  _760
REMARK  295  A    between atoms: _760  and  _761
REMARK  296  A    between atoms: _760  and  _763
REMARK  297  A    between atoms: _763  and  _764
REMARK  298  A    between atoms: _766  and  _768
REMARK  299  A    between atoms: _768  and  _769
REMARK  300  A    between atoms: _768  and  _771
REMARK  301  A    between atoms: _771  and  _772
REMARK  302  A    between atoms: _778  and  _780
REMARK  303  A    between atoms: _780  and  _781
REMARK  304  A    between atoms: _780  and  _783
REMARK  305  A    between atoms: _783  and  _784
REMARK  306  A    between atoms: _784  and  _785
REMARK                            x       y       z     vdW  Elec       q    Type
REMARK                         _______ _______ _______ _____ _____    ______ ____
ROOT
ATOM      1  O   HOH     1      26.373 -15.060  14.456  0.00  0.00    +0.000 OA
ENDROOT
TORSDOF 0
REMARK  Name = ../refined-set-2016/4ca7/4ca7_pocket.pdb
REMARK  306 active torsions:
REMARK  status: ('A' for Active; 'I' for Inactive)
REMARK    1  A    between atoms: _1  and  _3
REMARK    2  A    between atoms: _3  and  _4
REMARK    3  A    between atoms: _3  and  _6
REMARK    4  A    between atoms: _6  and  _7
REMARK    5  A    between atoms: _7  and  _8
REMARK    6  A    between atoms: _8  and  _9
REMARK    7  A    between atoms: _9  and  _10
REMARK    8  A    between atoms: _14  and  _16
REMARK    9  A    between atoms: _16  and  _17
REMARK   10  A    between atoms: _16  and  _19
REMARK   11  A    between atoms: _19  and  _20
REMARK   12  A    between atoms: _20  and  _21
REMARK   13  A    between atoms: _24  and  _26
REMARK   14  A    between atoms: _26  and  _27
REMARK   15  A    between atoms: _26  and  _29
REMARK   16  A    between atoms: _29  and  _30
REMARK   17  A    between atoms: _30  and  _31
REMARK   18  A    between atoms: _34  and  _36
REMARK   19  A    between atoms: _36  and  _37
REMARK   20  A    between atoms: _36  and  _39
REMARK   21  A    between atoms: _39  and  _40
REMARK   22  A    between atoms: _45  and  _47
REMARK   23  A    between atoms: _47  and  _48
REMARK   24  A    between atoms: _47  and  _50
REMARK   25  A    between atoms: _50  and  _51
REMARK   26  A    between atoms: _61  and  _63
REMARK   27  A    between atoms: _63  and  _64
REMARK   28  A    between atoms: _63  and  _66
REMARK   29  A    between atoms: _66  and  _67
REMARK   30  A    between atoms: _67  and  _68
REMARK   31  A    between atoms: _73  and  _75
REMARK   32  A    between atoms: _75  and  _76
REMARK   33  A    between atoms: _75  and  _78
REMARK   34  A    between atoms: _78  and  _79
REMARK   35  A    between atoms: _79  and  _80
REMARK   36  A    between atoms: _85  and  _87
REMARK   37  A    between atoms: _87  and  _88
REMARK   38  A    between atoms: _87  and  _90
REMARK   39  A    between atoms: _90  and  _91
REMARK   40  A    between atoms: _93  and  _95
REMARK   41  A    between atoms: _95  and  _96
REMARK   42  A    between atoms: _95  and  _98
REMARK   43  A    between atoms: _101  and  _103
REMARK   44  A    between atoms: _103  and  _104
REMARK   45  A    between atoms: _103  and  _106
REMARK   46  A    between atoms: _108  and  _110
REMARK   47  A    between atoms: _110  and  _111
REMARK   48  A    between atoms: _110  and  _113
REMARK   49  A    between atoms: _113  and  _114
REMARK   50  A    between atoms: _119  and  _121
REMARK   51  A    between atoms: _121  and  _122
REMARK   52  A    between atoms: _125  and  _127
REMARK   53  A    between atoms: _127  and  _128
REMARK   54  A    between atoms: _127  and  _130
REMARK   55  A    between atoms: _130  and  _131
REMARK   56  A    between atoms: _133  and  _135
REMARK   57  A    between atoms: _135  and  _136
REMARK   58  A    between atoms: _139  and  _141
REMARK   59  A    between atoms: _141  and  _142
REMARK   60  A    between atoms: _141  and  _144
REMARK   61  A    between atoms: _144  and  _145
REMARK   62  A    between atoms: _155  and  _157
REMARK   63  A    between atoms: _157  and  _158
REMARK   64  A    between atoms: _157  and  _160
REMARK   65  A    between atoms: _160  and  _161
REMARK   66  A    between atoms: _164  and  _166
REMARK   67  A    between atoms: _166  and  _167
REMARK   68  A    between atoms: _166  and  _169
REMARK   69  A    between atoms: _169  and  _170
REMARK   70  A    between atoms: _175  and  _176
REMARK   71  A    between atoms: _178  and  _180
REMARK   72  A    between atoms: _180  and  _181
REMARK   73  A    between atoms: _180  and  _183
REMARK   74  A    between atoms: _183  and  _184
REMARK   75  A    between atoms: _184  and  _185
REMARK   76  A    between atoms: _185  and  _186
REMARK   77  A    between atoms: _195  and  _197
REMARK   78  A    between atoms: _197  and  _198
REMARK   79  A    between atoms: _197  and  _200
REMARK   80  A    between atoms: _200  and  _201
REMARK   81  A    between atoms: _204  and  _206
REMARK   82  A    between atoms: _206  and  _207
REMARK   83  A    between atoms: _206  and  _209
REMARK   84  A    between atoms: _209  and  _210
REMARK   85  A    between atoms: _210  and  _211
REMARK   86  A    between atoms: _211  and  _212
REMARK   87  A    between atoms: _212  and  _213
REMARK   88  A    between atoms: _217  and  _219
REMARK   89  A    between atoms: _219  and  _220
REMARK   90  A    between atoms: _219  and  _222
REMARK   91  A    between atoms: _222  and  _223
REMARK   92  A    between atoms: _223  and  _224
REMARK   93  A    between atoms: _229  and  _231
REMARK   94  A    between atoms: _231  and  _232
REMARK   95  A    between atoms: _231  and  _234
REMARK   96  A    between atoms: _234  and  _235
REMARK   97  A    between atoms: _235  and  _236
REMARK   98  A    between atoms: _236  and  _237
REMARK   99  A    between atoms: _246  and  _248
REMARK  100  A    between atoms: _248  and  _249
REMARK  101  A    between atoms: _248  and  _251
REMARK  102  A    between atoms: _251  and  _252
REMARK  103  A    between atoms: _252  and  _253
REMARK  104  A    between atoms: _258  and  _260
REMARK  105  A    between atoms: _260  and  _261
REMARK  106  A    between atoms: _260  and  _263
REMARK  107  A    between atoms: _263  and  _264
REMARK  108  A    between atoms: _267  and  _269
REMARK  109  A    between atoms: _269  and  _270
REMARK  110  A    between atoms: _269  and  _272
REMARK  111  A    between atoms: _272  and  _273
REMARK  112  A    between atoms: _273  and  _274
REMARK  113  A    between atoms: _279  and  _281
REMARK  114  A    between atoms: _281  and  _282
REMARK  115  A    between atoms: _281  and  _284
REMARK  116  A    between atoms: _284  and  _285
REMARK  117  A    between atoms: _288  and  _290
REMARK  118  A    between atoms: _290  and  _291
REMARK  119  A    between atoms: _290  and  _293
REMARK  120  A    between atoms: _293  and  _294
REMARK  121  A    between atoms: _300  and  _302
REMARK  122  A    between atoms: _302  and  _303
REMARK  123  A    between atoms: _302  and  _305
REMARK  124  A    between atoms: _305  and  _306
REMARK  125  A    between atoms: _309  and  _311
REMARK  126  A    between atoms: _311  and  _312
REMARK  127  A    between atoms: _311  and  _314
REMARK  128  A    between atoms: _317  and  _319
REMARK  129  A    between atoms: _319  and  _320
REMARK  130  A    between atoms: _319  and  _322
REMARK  131  A    between atoms: _322  and  _323
REMARK  132  A    between atoms: _328  and  _330
REMARK  133  A    between atoms: _341  and  _344
REMARK  134  A    between atoms: _344  and  _345
REMARK  135  A    between atoms: _345  and  _346
REMARK  136  A    between atoms: _351  and  _354
REMARK  137  A    between atoms: _354  and  _355
REMARK  138  A    between atoms: _365  and  _366
REMARK  139  A    between atoms: _374  and  _376
REMARK  140  A    between atoms: _376  and  _377
REMARK  141  A    between atoms: _376  and  _379
REMARK  142  A    between atoms: _379  and  _380
REMARK  143  A    between atoms: _383  and  _385
REMARK  144  A    between atoms: _385  and  _386
REMARK  145  A    between atoms: _385  and  _388
REMARK  146  A    between atoms: _388  and  _389
REMARK  147  A    between atoms: _394  and  _395
REMARK  148  A    between atoms: _397  and  _399
REMARK  149  A    between atoms: _399  and  _400
REMARK  150  A    between atoms: _399  and  _402
REMARK  151  A    between atoms: _402  and  _403
REMARK  152  A    between atoms: _409  and  _411
REMARK  153  A    between atoms: _411  and  _412
REMARK  154  A    between atoms: _411  and  _414
REMARK  155  A    between atoms: _414  and  _415
REMARK  156  A    between atoms: _420  and  _421
REMARK  157  A    between atoms: _423  and  _425
REMARK  158  A    between atoms: _425  and  _426
REMARK  159  A    between atoms: _425  and  _428
REMARK  160  A    between atoms: _428  and  _429
REMARK  161  A    between atoms: _429  and  _430
REMARK  162  A    between atoms: _430  and  _431
REMARK  163  A    between atoms: _440  and  _442
REMARK  164  A    between atoms: _442  and  _443
REMARK  165  A    between atoms: _442  and  _445
REMARK  166  A    between atoms: _445  and  _446
REMARK  167  A    between atoms: _449  and  _451
REMARK  168  A    between atoms: _451  and  _452
REMARK  169  A    between atoms: _454  and  _456
REMARK  170  A    between atoms: _456  and  _457
REMARK  171  A    between atoms: _456  and  _459
REMARK  172  A    between atoms: _459  and  _460
REMARK  173  A    between atoms: _466  and  _467
REMARK  174  A    between atoms: _472  and  _474
REMARK  175  A    between atoms: _474  and  _475
REMARK  176  A    between atoms: _477  and  _479
REMARK  177  A    between atoms: _479  and  _480
REMARK  178  A    between atoms: _479  and  _482
REMARK  179  A    between atoms: _482  and  _483
REMARK  180  A    between atoms: _489  and  _491
REMARK  181  A    between atoms: _491  and  _492
REMARK  182  A    between atoms: _491  and  _494
REMARK  183  A    between atoms: _494  and  _495
REMARK  184  A    between atoms: _500  and  _502
REMARK  185  A    between atoms: _502  and  _503
REMARK  186  A    between atoms: _502  and  _505
REMARK  187  A    between atoms: _505  and  _506
REMARK  188  A    between atoms: _506  and  _507
REMARK  189  A    between atoms: _507  and  _508
REMARK  190  A    between atoms: _508  and  ZN_790
REMARK  191  A    between atoms: _510  and  _512
REMARK  192  A    between atoms: _512  and  _513
REMARK  193  A    between atoms: _516  and  _518
REMARK  194  A    between atoms: _518  and  _519
REMARK  195  A    between atoms: _521  and  _523
REMARK  196  A    between atoms: _523  and  _524
REMARK  197  A    between atoms: _523  and  _526
REMARK  198  A    between atoms: _526  and  _527
REMARK  199  A    between atoms: _530  and  _532
REMARK  200  A    between atoms: _532  and  _533
REMARK  201  A    between atoms: _532  and  _535
REMARK  202  A    between atoms: _538  and  _540
REMARK  203  A    between atoms: _540  and  _541
REMARK  204  A    between atoms: _540  and  _543
REMARK  205  A    between atoms: _543  and  _544
REMARK  206  A    between atoms: _546  and  _548
REMARK  207  A    between atoms: _548  and  _549
REMARK  208  A    between atoms: _548  and  _551
REMARK  209  A    between atoms: _551  and  _552
REMARK  210  A    between atoms: _555  and  _557
REMARK  211  A    between atoms: _557  and  _558
REMARK  212  A    between atoms: _557  and  _560
REMARK  213  A    between atoms: _560  and  _561
REMARK  214  A    between atoms: _563  and  _565
REMARK  215  A    between atoms: _565  and  _566
REMARK  216  A    between atoms: _565  and  _568
REMARK  217  A    between atoms: _568  and  _569
REMARK  218  A    between atoms: _572  and  _574
REMARK  219  A    between atoms: _574  and  _575
REMARK  220  A    between atoms: _574  and  _577
REMARK  221  A    between atoms: _577  and  _578
REMARK  222  A    between atoms: _578  and  _579
REMARK  223  A    between atoms: _579  and  _580
REMARK  224  A    between atoms: _580  and  _581
REMARK  225  A    between atoms: _585  and  _587
REMARK  226  A    between atoms: _587  and  _588
REMARK  227  A    between atoms: _587  and  _590
REMARK  228  A    between atoms: _590  and  _591
REMARK  229  A    between atoms: _597  and  _599
REMARK  230  A    between atoms: _599  and  _600
REMARK  231  A    between atoms: _599  and  _602
REMARK  232  A    between atoms: _602  and  _603
REMARK  233  A    between atoms: _609  and  _611
REMARK  234  A    between atoms: _611  and  _612
REMARK  235  A    between atoms: _615  and  _617
REMARK  236  A    between atoms: _617  and  _618
REMARK  237  A    between atoms: _617  and  _620
REMARK  238  A    between atoms: _620  and  _621
REMARK  239  A    between atoms: _621  and  _622
REMARK  240  A    between atoms: _624  and  _626
REMARK  241  A    between atoms: _626  and  _627
REMARK  242  A    between atoms: _626  and  _629
REMARK  243  A    between atoms: _629  and  _630
REMARK  244  A    between atoms: _630  and  _631
REMARK  245  A    between atoms: _631  and  _632
REMARK  246  A    between atoms: _632  and  _633
REMARK  247  A    between atoms: _637  and  _639
REMARK  248  A    between atoms: _639  and  _640
REMARK  249  A    between atoms: _639  and  _642
REMARK  250  A    between atoms: _642  and  _643
REMARK  251  A    between atoms: _648  and  _649
REMARK  252  A    between atoms: _651  and  _653
REMARK  253  A    between atoms: _653  and  _654
REMARK  254  A    between atoms: _653  and  _656
REMARK  255  A    between atoms: _656  and  _657
REMARK  256  A    between atoms: _662  and  _664
REMARK  257  A    between atoms: _664  and  _665
REMARK  258  A    between atoms: _664  and  _667
REMARK  259  A    between atoms: _667  and  _668
REMARK  260  A    between atoms: _671  and  _673
REMARK  261  A    between atoms: _673  and  _674
REMARK  262  A    between atoms: _677  and  _679
REMARK  263  A    between atoms: _679  and  _680
REMARK  264  A    between atoms: _679  and  _682
REMARK  265  A    between atoms: _682  and  _683
REMARK  266  A    between atoms: _686  and  _688
REMARK  267  A    between atoms: _688  and  _689
REMARK  268  A    between atoms: _688  and  _691
REMARK  269  A    between atoms: _694  and  _696
REMARK  270  A    between atoms: _696  and  _697
REMARK  271  A    between atoms: _696  and  _699
REMARK  272  A    between atoms: _699  and  _700
REMARK  273  A    between atoms: _700  and  _701
REMARK  274  A    between atoms: _704  and  _706
REMARK  275  A    between atoms: _706  and  _707
REMARK  276  A    between atoms: _706  and  _709
REMARK  277  A    between atoms: _709  and  _710
REMARK  278  A    between atoms: _715  and  _716
REMARK  279  A    between atoms: _718  and  _720
REMARK  280  A    between atoms: _720  and  _721
REMARK  281  A    between atoms: _720  and  _723
REMARK  282  A    between atoms: _723  and  _724
REMARK  283  A    between atoms: _724  and  _725
REMARK  284  A    between atoms: _725  and  _726
REMARK  285  A    between atoms: _735  and  _737
REMARK  286  A    between atoms: _737  and  _738
REMARK  287  A    between atoms: _737  and  _740
REMARK  288  A    between atoms: _740  and  _741
REMARK  289  A    between atoms: _746  and  _747
REMARK  290  A    between atoms: _749  and  _751
REMARK  291  A    between atoms: _751  and  _752
REMARK  292  A    between atoms: _751  and  _754
REMARK  293  A    between atoms: _754  and  _755
REMARK  294  A    between atoms: _758  and  _760
REMARK  295  A    between atoms: _760  and  _761
REMARK  296  A    between atoms: _760  and  _763
REMARK  297  A    between atoms: _763  and  _764
REMARK  298  A    between atoms: _766  and  _768
REMARK  299  A    between atoms: _768  and  _769
REMARK  300  A    between atoms: _768  and  _771
REMARK  301  A    between atoms: _771  and  _772
REMARK  302  A    between atoms: _778  and  _780
REMARK  303  A    between atoms: _780  and  _781
REMARK  304  A    between atoms: _780  and  _783
REMARK  305  A    between atoms: _783  and  _784
REMARK  306  A    between atoms: _784  and  _785
REMARK                            x       y       z     vdW  Elec       q    Type
REMARK                         _______ _______ _______ _____ _____    ______ ____
ROOT
ATOM      1  O   HOH     1      29.154 -18.698  10.087  0.00  0.00    +0.000 OA
ENDROOT
TORSDOF 0
REMARK  Name = ../refined-set-2016/4ca7/4ca7_pocket.pdb
REMARK  306 active torsions:
REMARK  status: ('A' for Active; 'I' for Inactive)
REMARK    1  A    between atoms: _1  and  _3
REMARK    2  A    between atoms: _3  and  _4
REMARK    3  A    between atoms: _3  and  _6
REMARK    4  A    between atoms: _6  and  _7
REMARK    5  A    between atoms: _7  and  _8
REMARK    6  A    between atoms: _8  and  _9
REMARK    7  A    between atoms: _9  and  _10
REMARK    8  A    between atoms: _14  and  _16
REMARK    9  A    between atoms: _16  and  _17
REMARK   10  A    between atoms: _16  and  _19
REMARK   11  A    between atoms: _19  and  _20
REMARK   12  A    between atoms: _20  and  _21
REMARK   13  A    between atoms: _24  and  _26
REMARK   14  A    between atoms: _26  and  _27
REMARK   15  A    between atoms: _26  and  _29
REMARK   16  A    between atoms: _29  and  _30
REMARK   17  A    between atoms: _30  and  _31
REMARK   18  A    between atoms: _34  and  _36
REMARK   19  A    between atoms: _36  and  _37
REMARK   20  A    between atoms: _36  and  _39
REMARK   21  A    between atoms: _39  and  _40
REMARK   22  A    between atoms: _45  and  _47
REMARK   23  A    between atoms: _47  and  _48
REMARK   24  A    between atoms: _47  and  _50
REMARK   25  A    between atoms: _50  and  _51
REMARK   26  A    between atoms: _61  and  _63
REMARK   27  A    between atoms: _63  and  _64
REMARK   28  A    between atoms: _63  and  _66
REMARK   29  A    between atoms: _66  and  _67
REMARK   30  A    between atoms: _67  and  _68
REMARK   31  A    between atoms: _73  and  _75
REMARK   32  A    between atoms: _75  and  _76
REMARK   33  A    between atoms: _75  and  _78
REMARK   34  A    between atoms: _78  and  _79
REMARK   35  A    between atoms: _79  and  _80
REMARK   36  A    between atoms: _85  and  _87
REMARK   37  A    between atoms: _87  and  _88
REMARK   38  A    between atoms: _87  and  _90
REMARK   39  A    between atoms: _90  and  _91
REMARK   40  A    between atoms: _93  and  _95
REMARK   41  A    between atoms: _95  and  _96
REMARK   42  A    between atoms: _95  and  _98
REMARK   43  A    between atoms: _101  and  _103
REMARK   44  A    between atoms: _103  and  _104
REMARK   45  A    between atoms: _103  and  _106
REMARK   46  A    between atoms: _108  and  _110
REMARK   47  A    between atoms: _110  and  _111
REMARK   48  A    between atoms: _110  and  _113
REMARK   49  A    between atoms: _113  and  _114
REMARK   50  A    between atoms: _119  and  _121
REMARK   51  A    between atoms: _121  and  _122
REMARK   52  A    between atoms: _125  and  _127
REMARK   53  A    between atoms: _127  and  _128
REMARK   54  A    between atoms: _127  and  _130
REMARK   55  A    between atoms: _130  and  _131
REMARK   56  A    between atoms: _133  and  _135
REMARK   57  A    between atoms: _135  and  _136
REMARK   58  A    between atoms: _139  and  _141
REMARK   59  A    between atoms: _141  and  _142
REMARK   60  A    between atoms: _141  and  _144
REMARK   61  A    between atoms: _144  and  _145
REMARK   62  A    between atoms: _155  and  _157
REMARK   63  A    between atoms: _157  and  _158
REMARK   64  A    between atoms: _157  and  _160
REMARK   65  A    between atoms: _160  and  _161
REMARK   66  A    between atoms: _164  and  _166
REMARK   67  A    between atoms: _166  and  _167
REMARK   68  A    between atoms: _166  and  _169
REMARK   69  A    between atoms: _169  and  _170
REMARK   70  A    between atoms: _175  and  _176
REMARK   71  A    between atoms: _178  and  _180
REMARK   72  A    between atoms: _180  and  _181
REMARK   73  A    between atoms: _180  and  _183
REMARK   74  A    between atoms: _183  and  _184
REMARK   75  A    between atoms: _184  and  _185
REMARK   76  A    between atoms: _185  and  _186
REMARK   77  A    between atoms: _195  and  _197
REMARK   78  A    between atoms: _197  and  _198
REMARK   79  A    between atoms: _197  and  _200
REMARK   80  A    between atoms: _200  and  _201
REMARK   81  A    between atoms: _204  and  _206
REMARK   82  A    between atoms: _206  and  _207
REMARK   83  A    between atoms: _206  and  _209
REMARK   84  A    between atoms: _209  and  _210
REMARK   85  A    between atoms: _210  and  _211
REMARK   86  A    between atoms: _211  and  _212
REMARK   87  A    between atoms: _212  and  _213
REMARK   88  A    between atoms: _217  and  _219
REMARK   89  A    between atoms: _219  and  _220
REMARK   90  A    between atoms: _219  and  _222
REMARK   91  A    between atoms: _222  and  _223
REMARK   92  A    between atoms: _223  and  _224
REMARK   93  A    between atoms: _229  and  _231
REMARK   94  A    between atoms: _231  and  _232
REMARK   95  A    between atoms: _231  and  _234
REMARK   96  A    between atoms: _234  and  _235
REMARK   97  A    between atoms: _235  and  _236
REMARK   98  A    between atoms: _236  and  _237
REMARK   99  A    between atoms: _246  and  _248
REMARK  100  A    between atoms: _248  and  _249
REMARK  101  A    between atoms: _248  and  _251
REMARK  102  A    between atoms: _251  and  _252
REMARK  103  A    between atoms: _252  and  _253
REMARK  104  A    between atoms: _258  and  _260
REMARK  105  A    between atoms: _260  and  _261
REMARK  106  A    between atoms: _260  and  _263
REMARK  107  A    between atoms: _263  and  _264
REMARK  108  A    between atoms: _267  and  _269
REMARK  109  A    between atoms: _269  and  _270
REMARK  110  A    between atoms: _269  and  _272
REMARK  111  A    between atoms: _272  and  _273
REMARK  112  A    between atoms: _273  and  _274
REMARK  113  A    between atoms: _279  and  _281
REMARK  114  A    between atoms: _281  and  _282
REMARK  115  A    between atoms: _281  and  _284
REMARK  116  A    between atoms: _284  and  _285
REMARK  117  A    between atoms: _288  and  _290
REMARK  118  A    between atoms: _290  and  _291
REMARK  119  A    between atoms: _290  and  _293
REMARK  120  A    between atoms: _293  and  _294
REMARK  121  A    between atoms: _300  and  _302
REMARK  122  A    between atoms: _302  and  _303
REMARK  123  A    between atoms: _302  and  _305
REMARK  124  A    between atoms: _305  and  _306
REMARK  125  A    between atoms: _309  and  _311
REMARK  126  A    between atoms: _311  and  _312
REMARK  127  A    between atoms: _311  and  _314
REMARK  128  A    between atoms: _317  and  _319
REMARK  129  A    between atoms: _319  and  _320
REMARK  130  A    between atoms: _319  and  _322
REMARK  131  A    between atoms: _322  and  _323
REMARK  132  A    between atoms: _328  and  _330
REMARK  133  A    between atoms: _341  and  _344
REMARK  134  A    between atoms: _344  and  _345
REMARK  135  A    between atoms: _345  and  _346
REMARK  136  A    between atoms: _351  and  _354
REMARK  137  A    between atoms: _354  and  _355
REMARK  138  A    between atoms: _365  and  _366
REMARK  139  A    between atoms: _374  and  _376
REMARK  140  A    between atoms: _376  and  _377
REMARK  141  A    between atoms: _376  and  _379
REMARK  142  A    between atoms: _379  and  _380
REMARK  143  A    between atoms: _383  and  _385
REMARK  144  A    between atoms: _385  and  _386
REMARK  145  A    between atoms: _385  and  _388
REMARK  146  A    between atoms: _388  and  _389
REMARK  147  A    between atoms: _394  and  _395
REMARK  148  A    between atoms: _397  and  _399
REMARK  149  A    between atoms: _399  and  _400
REMARK  150  A    between atoms: _399  and  _402
REMARK  151  A    between atoms: _402  and  _403
REMARK  152  A    between atoms: _409  and  _411
REMARK  153  A    between atoms: _411  and  _412
REMARK  154  A    between atoms: _411  and  _414
REMARK  155  A    between atoms: _414  and  _415
REMARK  156  A    between atoms: _420  and  _421
REMARK  157  A    between atoms: _423  and  _425
REMARK  158  A    between atoms: _425  and  _426
REMARK  159  A    between atoms: _425  and  _428
REMARK  160  A    between atoms: _428  and  _429
REMARK  161  A    between atoms: _429  and  _430
REMARK  162  A    between atoms: _430  and  _431
REMARK  163  A    between atoms: _440  and  _442
REMARK  164  A    between atoms: _442  and  _443
REMARK  165  A    between atoms: _442  and  _445
REMARK  166  A    between atoms: _445  and  _446
REMARK  167  A    between atoms: _449  and  _451
REMARK  168  A    between atoms: _451  and  _452
REMARK  169  A    between atoms: _454  and  _456
REMARK  170  A    between atoms: _456  and  _457
REMARK  171  A    between atoms: _456  and  _459
REMARK  172  A    between atoms: _459  and  _460
REMARK  173  A    between atoms: _466  and  _467
REMARK  174  A    between atoms: _472  and  _474
REMARK  175  A    between atoms: _474  and  _475
REMARK  176  A    between atoms: _477  and  _479
REMARK  177  A    between atoms: _479  and  _480
REMARK  178  A    between atoms: _479  and  _482
REMARK  179  A    between atoms: _482  and  _483
REMARK  180  A    between atoms: _489  and  _491
REMARK  181  A    between atoms: _491  and  _492
REMARK  182  A    between atoms: _491  and  _494
REMARK  183  A    between atoms: _494  and  _495
REMARK  184  A    between atoms: _500  and  _502
REMARK  185  A    between atoms: _502  and  _503
REMARK  186  A    between atoms: _502  and  _505
REMARK  187  A    between atoms: _505  and  _506
REMARK  188  A    between atoms: _506  and  _507
REMARK  189  A    between atoms: _507  and  _508
REMARK  190  A    between atoms: _508  and  ZN_790
REMARK  191  A    between atoms: _510  and  _512
REMARK  192  A    between atoms: _512  and  _513
REMARK  193  A    between atoms: _516  and  _518
REMARK  194  A    between atoms: _518  and  _519
REMARK  195  A    between atoms: _521  and  _523
REMARK  196  A    between atoms: _523  and  _524
REMARK  197  A    between atoms: _523  and  _526
REMARK  198  A    between atoms: _526  and  _527
REMARK  199  A    between atoms: _530  and  _532
REMARK  200  A    between atoms: _532  and  _533
REMARK  201  A    between atoms: _532  and  _535
REMARK  202  A    between atoms: _538  and  _540
REMARK  203  A    between atoms: _540  and  _541
REMARK  204  A    between atoms: _540  and  _543
REMARK  205  A    between atoms: _543  and  _544
REMARK  206  A    between atoms: _546  and  _548
REMARK  207  A    between atoms: _548  and  _549
REMARK  208  A    between atoms: _548  and  _551
REMARK  209  A    between atoms: _551  and  _552
REMARK  210  A    between atoms: _555  and  _557
REMARK  211  A    between atoms: _557  and  _558
REMARK  212  A    between atoms: _557  and  _560
REMARK  213  A    between atoms: _560  and  _561
REMARK  214  A    between atoms: _563  and  _565
REMARK  215  A    between atoms: _565  and  _566
REMARK  216  A    between atoms: _565  and  _568
REMARK  217  A    between atoms: _568  and  _569
REMARK  218  A    between atoms: _572  and  _574
REMARK  219  A    between atoms: _574  and  _575
REMARK  220  A    between atoms: _574  and  _577
REMARK  221  A    between atoms: _577  and  _578
REMARK  222  A    between atoms: _578  and  _579
REMARK  223  A    between atoms: _579  and  _580
REMARK  224  A    between atoms: _580  and  _581
REMARK  225  A    between atoms: _585  and  _587
REMARK  226  A    between atoms: _587  and  _588
REMARK  227  A    between atoms: _587  and  _590
REMARK  228  A    between atoms: _590  and  _591
REMARK  229  A    between atoms: _597  and  _599
REMARK  230  A    between atoms: _599  and  _600
REMARK  231  A    between atoms: _599  and  _602
REMARK  232  A    between atoms: _602  and  _603
REMARK  233  A    between atoms: _609  and  _611
REMARK  234  A    between atoms: _611  and  _612
REMARK  235  A    between atoms: _615  and  _617
REMARK  236  A    between atoms: _617  and  _618
REMARK  237  A    between atoms: _617  and  _620
REMARK  238  A    between atoms: _620  and  _621
REMARK  239  A    between atoms: _621  and  _622
REMARK  240  A    between atoms: _624  and  _626
REMARK  241  A    between atoms: _626  and  _627
REMARK  242  A    between atoms: _626  and  _629
REMARK  243  A    between atoms: _629  and  _630
REMARK  244  A    between atoms: _630  and  _631
REMARK  245  A    between atoms: _631  and  _632
REMARK  246  A    between atoms: _632  and  _633
REMARK  247  A    between atoms: _637  and  _639
REMARK  248  A    between atoms: _639  and  _640
REMARK  249  A    between atoms: _639  and  _642
REMARK  250  A    between atoms: _642  and  _643
REMARK  251  A    between atoms: _648  and  _649
REMARK  252  A    between atoms: _651  and  _653
REMARK  253  A    between atoms: _653  and  _654
REMARK  254  A    between atoms: _653  and  _656
REMARK  255  A    between atoms: _656  and  _657
REMARK  256  A    between atoms: _662  and  _664
REMARK  257  A    between atoms: _664  and  _665
REMARK  258  A    between atoms: _664  and  _667
REMARK  259  A    between atoms: _667  and  _668
REMARK  260  A    between atoms: _671  and  _673
REMARK  261  A    between atoms: _673  and  _674
REMARK  262  A    between atoms: _677  and  _679
REMARK  263  A    between atoms: _679  and  _680
REMARK  264  A    between atoms: _679  and  _682
REMARK  265  A    between atoms: _682  and  _683
REMARK  266  A    between atoms: _686  and  _688
REMARK  267  A    between atoms: _688  and  _689
REMARK  268  A    between atoms: _688  and  _691
REMARK  269  A    between atoms: _694  and  _696
REMARK  270  A    between atoms: _696  and  _697
REMARK  271  A    between atoms: _696  and  _699
REMARK  272  A    between atoms: _699  and  _700
REMARK  273  A    between atoms: _700  and  _701
REMARK  274  A    between atoms: _704  and  _706
REMARK  275  A    between atoms: _706  and  _707
REMARK  276  A    between atoms: _706  and  _709
REMARK  277  A    between atoms: _709  and  _710
REMARK  278  A    between atoms: _715  and  _716
REMARK  279  A    between atoms: _718  and  _720
REMARK  280  A    between atoms: _720  and  _721
REMARK  281  A    between atoms: _720  and  _723
REMARK  282  A    between atoms: _723  and  _724
REMARK  283  A    between atoms: _724  and  _725
REMARK  284  A    between atoms: _725  and  _726
REMARK  285  A    between atoms: _735  and  _737
REMARK  286  A    between atoms: _737  and  _738
REMARK  287  A    between atoms: _737  and  _740
REMARK  288  A    between atoms: _740  and  _741
REMARK  289  A    between atoms: _746  and  _747
REMARK  290  A    between atoms: _749  and  _751
REMARK  291  A    between atoms: _751  and  _752
REMARK  292  A    between atoms: _751  and  _754
REMARK  293  A    between atoms: _754  and  _755
REMARK  294  A    between atoms: _758  and  _760
REMARK  295  A    between atoms: _760  and  _761
REMARK  296  A    between atoms: _760  and  _763
REMARK  297  A    between atoms: _763  and  _764
REMARK  298  A    between atoms: _766  and  _768
REMARK  299  A    between atoms: _768  and  _769
REMARK  300  A    between atoms: _768  and  _771
REMARK  301  A    between atoms: _771  and  _772
REMARK  302  A    between atoms: _778  and  _780
REMARK  303  A    between atoms: _780  and  _781
REMARK  304  A    between atoms: _780  and  _783
REMARK  305  A    between atoms: _783  and  _784
REMARK  306  A    between atoms: _784  and  _785
REMARK                            x       y       z     vdW  Elec       q    Type
REMARK                         _______ _______ _______ _____ _____    ______ ____
ROOT
ATOM      1  O   HOH     1      28.660 -15.569   9.701  0.00  0.00    +0.000 OA
ENDROOT
TORSDOF 0
REMARK  Name = ../refined-set-2016/4ca7/4ca7_pocket.pdb
REMARK  306 active torsions:
REMARK  status: ('A' for Active; 'I' for Inactive)
REMARK    1  A    between atoms: _1  and  _3
REMARK    2  A    between atoms: _3  and  _4
REMARK    3  A    between atoms: _3  and  _6
REMARK    4  A    between atoms: _6  and  _7
REMARK    5  A    between atoms: _7  and  _8
REMARK    6  A    between atoms: _8  and  _9
REMARK    7  A    between atoms: _9  and  _10
REMARK    8  A    between atoms: _14  and  _16
REMARK    9  A    between atoms: _16  and  _17
REMARK   10  A    between atoms: _16  and  _19
REMARK   11  A    between atoms: _19  and  _20
REMARK   12  A    between atoms: _20  and  _21
REMARK   13  A    between atoms: _24  and  _26
REMARK   14  A    between atoms: _26  and  _27
REMARK   15  A    between atoms: _26  and  _29
REMARK   16  A    between atoms: _29  and  _30
REMARK   17  A    between atoms: _30  and  _31
REMARK   18  A    between atoms: _34  and  _36
REMARK   19  A    between atoms: _36  and  _37
REMARK   20  A    between atoms: _36  and  _39
REMARK   21  A    between atoms: _39  and  _40
REMARK   22  A    between atoms: _45  and  _47
REMARK   23  A    between atoms: _47  and  _48
REMARK   24  A    between atoms: _47  and  _50
REMARK   25  A    between atoms: _50  and  _51
REMARK   26  A    between atoms: _61  and  _63
REMARK   27  A    between atoms: _63  and  _64
REMARK   28  A    between atoms: _63  and  _66
REMARK   29  A    between atoms: _66  and  _67
REMARK   30  A    between atoms: _67  and  _68
REMARK   31  A    between atoms: _73  and  _75
REMARK   32  A    between atoms: _75  and  _76
REMARK   33  A    between atoms: _75  and  _78
REMARK   34  A    between atoms: _78  and  _79
REMARK   35  A    between atoms: _79  and  _80
REMARK   36  A    between atoms: _85  and  _87
REMARK   37  A    between atoms: _87  and  _88
REMARK   38  A    between atoms: _87  and  _90
REMARK   39  A    between atoms: _90  and  _91
REMARK   40  A    between atoms: _93  and  _95
REMARK   41  A    between atoms: _95  and  _96
REMARK   42  A    between atoms: _95  and  _98
REMARK   43  A    between atoms: _101  and  _103
REMARK   44  A    between atoms: _103  and  _104
REMARK   45  A    between atoms: _103  and  _106
REMARK   46  A    between atoms: _108  and  _110
REMARK   47  A    between atoms: _110  and  _111
REMARK   48  A    between atoms: _110  and  _113
REMARK   49  A    between atoms: _113  and  _114
REMARK   50  A    between atoms: _119  and  _121
REMARK   51  A    between atoms: _121  and  _122
REMARK   52  A    between atoms: _125  and  _127
REMARK   53  A    between atoms: _127  and  _128
REMARK   54  A    between atoms: _127  and  _130
REMARK   55  A    between atoms: _130  and  _131
REMARK   56  A    between atoms: _133  and  _135
REMARK   57  A    between atoms: _135  and  _136
REMARK   58  A    between atoms: _139  and  _141
REMARK   59  A    between atoms: _141  and  _142
REMARK   60  A    between atoms: _141  and  _144
REMARK   61  A    between atoms: _144  and  _145
REMARK   62  A    between atoms: _155  and  _157
REMARK   63  A    between atoms: _157  and  _158
REMARK   64  A    between atoms: _157  and  _160
REMARK   65  A    between atoms: _160  and  _161
REMARK   66  A    between atoms: _164  and  _166
REMARK   67  A    between atoms: _166  and  _167
REMARK   68  A    between atoms: _166  and  _169
REMARK   69  A    between atoms: _169  and  _170
REMARK   70  A    between atoms: _175  and  _176
REMARK   71  A    between atoms: _178  and  _180
REMARK   72  A    between atoms: _180  and  _181
REMARK   73  A    between atoms: _180  and  _183
REMARK   74  A    between atoms: _183  and  _184
REMARK   75  A    between atoms: _184  and  _185
REMARK   76  A    between atoms: _185  and  _186
REMARK   77  A    between atoms: _195  and  _197
REMARK   78  A    between atoms: _197  and  _198
REMARK   79  A    between atoms: _197  and  _200
REMARK   80  A    between atoms: _200  and  _201
REMARK   81  A    between atoms: _204  and  _206
REMARK   82  A    between atoms: _206  and  _207
REMARK   83  A    between atoms: _206  and  _209
REMARK   84  A    between atoms: _209  and  _210
REMARK   85  A    between atoms: _210  and  _211
REMARK   86  A    between atoms: _211  and  _212
REMARK   87  A    between atoms: _212  and  _213
REMARK   88  A    between atoms: _217  and  _219
REMARK   89  A    between atoms: _219  and  _220
REMARK   90  A    between atoms: _219  and  _222
REMARK   91  A    between atoms: _222  and  _223
REMARK   92  A    between atoms: _223  and  _224
REMARK   93  A    between atoms: _229  and  _231
REMARK   94  A    between atoms: _231  and  _232
REMARK   95  A    between atoms: _231  and  _234
REMARK   96  A    between atoms: _234  and  _235
REMARK   97  A    between atoms: _235  and  _236
REMARK   98  A    between atoms: _236  and  _237
REMARK   99  A    between atoms: _246  and  _248
REMARK  100  A    between atoms: _248  and  _249
REMARK  101  A    between atoms: _248  and  _251
REMARK  102  A    between atoms: _251  and  _252
REMARK  103  A    between atoms: _252  and  _253
REMARK  104  A    between atoms: _258  and  _260
REMARK  105  A    between atoms: _260  and  _261
REMARK  106  A    between atoms: _260  and  _263
REMARK  107  A    between atoms: _263  and  _264
REMARK  108  A    between atoms: _267  and  _269
REMARK  109  A    between atoms: _269  and  _270
REMARK  110  A    between atoms: _269  and  _272
REMARK  111  A    between atoms: _272  and  _273
REMARK  112  A    between atoms: _273  and  _274
REMARK  113  A    between atoms: _279  and  _281
REMARK  114  A    between atoms: _281  and  _282
REMARK  115  A    between atoms: _281  and  _284
REMARK  116  A    between atoms: _284  and  _285
REMARK  117  A    between atoms: _288  and  _290
REMARK  118  A    between atoms: _290  and  _291
REMARK  119  A    between atoms: _290  and  _293
REMARK  120  A    between atoms: _293  and  _294
REMARK  121  A    between atoms: _300  and  _302
REMARK  122  A    between atoms: _302  and  _303
REMARK  123  A    between atoms: _302  and  _305
REMARK  124  A    between atoms: _305  and  _306
REMARK  125  A    between atoms: _309  and  _311
REMARK  126  A    between atoms: _311  and  _312
REMARK  127  A    between atoms: _311  and  _314
REMARK  128  A    between atoms: _317  and  _319
REMARK  129  A    between atoms: _319  and  _320
REMARK  130  A    between atoms: _319  and  _322
REMARK  131  A    between atoms: _322  and  _323
REMARK  132  A    between atoms: _328  and  _330
REMARK  133  A    between atoms: _341  and  _344
REMARK  134  A    between atoms: _344  and  _345
REMARK  135  A    between atoms: _345  and  _346
REMARK  136  A    between atoms: _351  and  _354
REMARK  137  A    between atoms: _354  and  _355
REMARK  138  A    between atoms: _365  and  _366
REMARK  139  A    between atoms: _374  and  _376
REMARK  140  A    between atoms: _376  and  _377
REMARK  141  A    between atoms: _376  and  _379
REMARK  142  A    between atoms: _379  and  _380
REMARK  143  A    between atoms: _383  and  _385
REMARK  144  A    between atoms: _385  and  _386
REMARK  145  A    between atoms: _385  and  _388
REMARK  146  A    between atoms: _388  and  _389
REMARK  147  A    between atoms: _394  and  _395
REMARK  148  A    between atoms: _397  and  _399
REMARK  149  A    between atoms: _399  and  _400
REMARK  150  A    between atoms: _399  and  _402
REMARK  151  A    between atoms: _402  and  _403
REMARK  152  A    between atoms: _409  and  _411
REMARK  153  A    between atoms: _411  and  _412
REMARK  154  A    between atoms: _411  and  _414
REMARK  155  A    between atoms: _414  and  _415
REMARK  156  A    between atoms: _420  and  _421
REMARK  157  A    between atoms: _423  and  _425
REMARK  158  A    between atoms: _425  and  _426
REMARK  159  A    between atoms: _425  and  _428
REMARK  160  A    between atoms: _428  and  _429
REMARK  161  A    between atoms: _429  and  _430
REMARK  162  A    between atoms: _430  and  _431
REMARK  163  A    between atoms: _440  and  _442
REMARK  164  A    between atoms: _442  and  _443
REMARK  165  A    between atoms: _442  and  _445
REMARK  166  A    between atoms: _445  and  _446
REMARK  167  A    between atoms: _449  and  _451
REMARK  168  A    between atoms: _451  and  _452
REMARK  169  A    between atoms: _454  and  _456
REMARK  170  A    between atoms: _456  and  _457
REMARK  171  A    between atoms: _456  and  _459
REMARK  172  A    between atoms: _459  and  _460
REMARK  173  A    between atoms: _466  and  _467
REMARK  174  A    between atoms: _472  and  _474
REMARK  175  A    between atoms: _474  and  _475
REMARK  176  A    between atoms: _477  and  _479
REMARK  177  A    between atoms: _479  and  _480
REMARK  178  A    between atoms: _479  and  _482
REMARK  179  A    between atoms: _482  and  _483
REMARK  180  A    between atoms: _489  and  _491
REMARK  181  A    between atoms: _491  and  _492
REMARK  182  A    between atoms: _491  and  _494
REMARK  183  A    between atoms: _494  and  _495
REMARK  184  A    between atoms: _500  and  _502
REMARK  185  A    between atoms: _502  and  _503
REMARK  186  A    between atoms: _502  and  _505
REMARK  187  A    between atoms: _505  and  _506
REMARK  188  A    between atoms: _506  and  _507
REMARK  189  A    between atoms: _507  and  _508
REMARK  190  A    between atoms: _508  and  ZN_790
REMARK  191  A    between atoms: _510  and  _512
REMARK  192  A    between atoms: _512  and  _513
REMARK  193  A    between atoms: _516  and  _518
REMARK  194  A    between atoms: _518  and  _519
REMARK  195  A    between atoms: _521  and  _523
REMARK  196  A    between atoms: _523  and  _524
REMARK  197  A    between atoms: _523  and  _526
REMARK  198  A    between atoms: _526  and  _527
REMARK  199  A    between atoms: _530  and  _532
REMARK  200  A    between atoms: _532  and  _533
REMARK  201  A    between atoms: _532  and  _535
REMARK  202  A    between atoms: _538  and  _540
REMARK  203  A    between atoms: _540  and  _541
REMARK  204  A    between atoms: _540  and  _543
REMARK  205  A    between atoms: _543  and  _544
REMARK  206  A    between atoms: _546  and  _548
REMARK  207  A    between atoms: _548  and  _549
REMARK  208  A    between atoms: _548  and  _551
REMARK  209  A    between atoms: _551  and  _552
REMARK  210  A    between atoms: _555  and  _557
REMARK  211  A    between atoms: _557  and  _558
REMARK  212  A    between atoms: _557  and  _560
REMARK  213  A    between atoms: _560  and  _561
REMARK  214  A    between atoms: _563  and  _565
REMARK  215  A    between atoms: _565  and  _566
REMARK  216  A    between atoms: _565  and  _568
REMARK  217  A    between atoms: _568  and  _569
REMARK  218  A    between atoms: _572  and  _574
REMARK  219  A    between atoms: _574  and  _575
REMARK  220  A    between atoms: _574  and  _577
REMARK  221  A    between atoms: _577  and  _578
REMARK  222  A    between atoms: _578  and  _579
REMARK  223  A    between atoms: _579  and  _580
REMARK  224  A    between atoms: _580  and  _581
REMARK  225  A    between atoms: _585  and  _587
REMARK  226  A    between atoms: _587  and  _588
REMARK  227  A    between atoms: _587  and  _590
REMARK  228  A    between atoms: _590  and  _591
REMARK  229  A    between atoms: _597  and  _599
REMARK  230  A    between atoms: _599  and  _600
REMARK  231  A    between atoms: _599  and  _602
REMARK  232  A    between atoms: _602  and  _603
REMARK  233  A    between atoms: _609  and  _611
REMARK  234  A    between atoms: _611  and  _612
REMARK  235  A    between atoms: _615  and  _617
REMARK  236  A    between atoms: _617  and  _618
REMARK  237  A    between atoms: _617  and  _620
REMARK  238  A    between atoms: _620  and  _621
REMARK  239  A    between atoms: _621  and  _622
REMARK  240  A    between atoms: _624  and  _626
REMARK  241  A    between atoms: _626  and  _627
REMARK  242  A    between atoms: _626  and  _629
REMARK  243  A    between atoms: _629  and  _630
REMARK  244  A    between atoms: _630  and  _631
REMARK  245  A    between atoms: _631  and  _632
REMARK  246  A    between atoms: _632  and  _633
REMARK  247  A    between atoms: _637  and  _639
REMARK  248  A    between atoms: _639  and  _640
REMARK  249  A    between atoms: _639  and  _642
REMARK  250  A    between atoms: _642  and  _643
REMARK  251  A    between atoms: _648  and  _649
REMARK  252  A    between atoms: _651  and  _653
REMARK  253  A    between atoms: _653  and  _654
REMARK  254  A    between atoms: _653  and  _656
REMARK  255  A    between atoms: _656  and  _657
REMARK  256  A    between atoms: _662  and  _664
REMARK  257  A    between atoms: _664  and  _665
REMARK  258  A    between atoms: _664  and  _667
REMARK  259  A    between atoms: _667  and  _668
REMARK  260  A    between atoms: _671  and  _673
REMARK  261  A    between atoms: _673  and  _674
REMARK  262  A    between atoms: _677  and  _679
REMARK  263  A    between atoms: _679  and  _680
REMARK  264  A    between atoms: _679  and  _682
REMARK  265  A    between atoms: _682  and  _683
REMARK  266  A    between atoms: _686  and  _688
REMARK  267  A    between atoms: _688  and  _689
REMARK  268  A    between atoms: _688  and  _691
REMARK  269  A    between atoms: _694  and  _696
REMARK  270  A    between atoms: _696  and  _697
REMARK  271  A    between atoms: _696  and  _699
REMARK  272  A    between atoms: _699  and  _700
REMARK  273  A    between atoms: _700  and  _701
REMARK  274  A    between atoms: _704  and  _706
REMARK  275  A    between atoms: _706  and  _707
REMARK  276  A    between atoms: _706  and  _709
REMARK  277  A    between atoms: _709  and  _710
REMARK  278  A    between atoms: _715  and  _716
REMARK  279  A    between atoms: _718  and  _720
REMARK  280  A    between atoms: _720  and  _721
REMARK  281  A    between atoms: _720  and  _723
REMARK  282  A    between atoms: _723  and  _724
REMARK  283  A    between atoms: _724  and  _725
REMARK  284  A    between atoms: _725  and  _726
REMARK  285  A    between atoms: _735  and  _737
REMARK  286  A    between atoms: _737  and  _738
REMARK  287  A    between atoms: _737  and  _740
REMARK  288  A    between atoms: _740  and  _741
REMARK  289  A    between atoms: _746  and  _747
REMARK  290  A    between atoms: _749  and  _751
REMARK  291  A    between atoms: _751  and  _752
REMARK  292  A    between atoms: _751  and  _754
REMARK  293  A    between atoms: _754  and  _755
REMARK  294  A    between atoms: _758  and  _760
REMARK  295  A    between atoms: _760  and  _761
REMARK  296  A    between atoms: _760  and  _763
REMARK  297  A    between atoms: _763  and  _764
REMARK  298  A    between atoms: _766  and  _768
REMARK  299  A    between atoms: _768  and  _769
REMARK  300  A    between atoms: _768  and  _771
REMARK  301  A    between atoms: _771  and  _772
REMARK  302  A    between atoms: _778  and  _780
REMARK  303  A    between atoms: _780  and  _781
REMARK  304  A    between atoms: _780  and  _783
REMARK  305  A    between atoms: _783  and  _784
REMARK  306  A    between atoms: _784  and  _785
REMARK                            x       y       z     vdW  Elec       q    Type
REMARK                         _______ _______ _______ _____ _____    ______ ____
ROOT
ATOM      1  O   HOH     1      29.675 -17.017  13.495  0.00  0.00    +0.000 OA
ENDROOT
TORSDOF 0
REMARK  Name = ../refined-set-2016/4ca7/4ca7_pocket.pdb
REMARK  306 active torsions:
REMARK  status: ('A' for Active; 'I' for Inactive)
REMARK    1  A    between atoms: _1  and  _3
REMARK    2  A    between atoms: _3  and  _4
REMARK    3  A    between atoms: _3  and  _6
REMARK    4  A    between atoms: _6  and  _7
REMARK    5  A    between atoms: _7  and  _8
REMARK    6  A    between atoms: _8  and  _9
REMARK    7  A    between atoms: _9  and  _10
REMARK    8  A    between atoms: _14  and  _16
REMARK    9  A    between atoms: _16  and  _17
REMARK   10  A    between atoms: _16  and  _19
REMARK   11  A    between atoms: _19  and  _20
REMARK   12  A    between atoms: _20  and  _21
REMARK   13  A    between atoms: _24  and  _26
REMARK   14  A    between atoms: _26  and  _27
REMARK   15  A    between atoms: _26  and  _29
REMARK   16  A    between atoms: _29  and  _30
REMARK   17  A    between atoms: _30  and  _31
REMARK   18  A    between atoms: _34  and  _36
REMARK   19  A    between atoms: _36  and  _37
REMARK   20  A    between atoms: _36  and  _39
REMARK   21  A    between atoms: _39  and  _40
REMARK   22  A    between atoms: _45  and  _47
REMARK   23  A    between atoms: _47  and  _48
REMARK   24  A    between atoms: _47  and  _50
REMARK   25  A    between atoms: _50  and  _51
REMARK   26  A    between atoms: _61  and  _63
REMARK   27  A    between atoms: _63  and  _64
REMARK   28  A    between atoms: _63  and  _66
REMARK   29  A    between atoms: _66  and  _67
REMARK   30  A    between atoms: _67  and  _68
REMARK   31  A    between atoms: _73  and  _75
REMARK   32  A    between atoms: _75  and  _76
REMARK   33  A    between atoms: _75  and  _78
REMARK   34  A    between atoms: _78  and  _79
REMARK   35  A    between atoms: _79  and  _80
REMARK   36  A    between atoms: _85  and  _87
REMARK   37  A    between atoms: _87  and  _88
REMARK   38  A    between atoms: _87  and  _90
REMARK   39  A    between atoms: _90  and  _91
REMARK   40  A    between atoms: _93  and  _95
REMARK   41  A    between atoms: _95  and  _96
REMARK   42  A    between atoms: _95  and  _98
REMARK   43  A    between atoms: _101  and  _103
REMARK   44  A    between atoms: _103  and  _104
REMARK   45  A    between atoms: _103  and  _106
REMARK   46  A    between atoms: _108  and  _110
REMARK   47  A    between atoms: _110  and  _111
REMARK   48  A    between atoms: _110  and  _113
REMARK   49  A    between atoms: _113  and  _114
REMARK   50  A    between atoms: _119  and  _121
REMARK   51  A    between atoms: _121  and  _122
REMARK   52  A    between atoms: _125  and  _127
REMARK   53  A    between atoms: _127  and  _128
REMARK   54  A    between atoms: _127  and  _130
REMARK   55  A    between atoms: _130  and  _131
REMARK   56  A    between atoms: _133  and  _135
REMARK   57  A    between atoms: _135  and  _136
REMARK   58  A    between atoms: _139  and  _141
REMARK   59  A    between atoms: _141  and  _142
REMARK   60  A    between atoms: _141  and  _144
REMARK   61  A    between atoms: _144  and  _145
REMARK   62  A    between atoms: _155  and  _157
REMARK   63  A    between atoms: _157  and  _158
REMARK   64  A    between atoms: _157  and  _160
REMARK   65  A    between atoms: _160  and  _161
REMARK   66  A    between atoms: _164  and  _166
REMARK   67  A    between atoms: _166  and  _167
REMARK   68  A    between atoms: _166  and  _169
REMARK   69  A    between atoms: _169  and  _170
REMARK   70  A    between atoms: _175  and  _176
REMARK   71  A    between atoms: _178  and  _180
REMARK   72  A    between atoms: _180  and  _181
REMARK   73  A    between atoms: _180  and  _183
REMARK   74  A    between atoms: _183  and  _184
REMARK   75  A    between atoms: _184  and  _185
REMARK   76  A    between atoms: _185  and  _186
REMARK   77  A    between atoms: _195  and  _197
REMARK   78  A    between atoms: _197  and  _198
REMARK   79  A    between atoms: _197  and  _200
REMARK   80  A    between atoms: _200  and  _201
REMARK   81  A    between atoms: _204  and  _206
REMARK   82  A    between atoms: _206  and  _207
REMARK   83  A    between atoms: _206  and  _209
REMARK   84  A    between atoms: _209  and  _210
REMARK   85  A    between atoms: _210  and  _211
REMARK   86  A    between atoms: _211  and  _212
REMARK   87  A    between atoms: _212  and  _213
REMARK   88  A    between atoms: _217  and  _219
REMARK   89  A    between atoms: _219  and  _220
REMARK   90  A    between atoms: _219  and  _222
REMARK   91  A    between atoms: _222  and  _223
REMARK   92  A    between atoms: _223  and  _224
REMARK   93  A    between atoms: _229  and  _231
REMARK   94  A    between atoms: _231  and  _232
REMARK   95  A    between atoms: _231  and  _234
REMARK   96  A    between atoms: _234  and  _235
REMARK   97  A    between atoms: _235  and  _236
REMARK   98  A    between atoms: _236  and  _237
REMARK   99  A    between atoms: _246  and  _248
REMARK  100  A    between atoms: _248  and  _249
REMARK  101  A    between atoms: _248  and  _251
REMARK  102  A    between atoms: _251  and  _252
REMARK  103  A    between atoms: _252  and  _253
REMARK  104  A    between atoms: _258  and  _260
REMARK  105  A    between atoms: _260  and  _261
REMARK  106  A    between atoms: _260  and  _263
REMARK  107  A    between atoms: _263  and  _264
REMARK  108  A    between atoms: _267  and  _269
REMARK  109  A    between atoms: _269  and  _270
REMARK  110  A    between atoms: _269  and  _272
REMARK  111  A    between atoms: _272  and  _273
REMARK  112  A    between atoms: _273  and  _274
REMARK  113  A    between atoms: _279  and  _281
REMARK  114  A    between atoms: _281  and  _282
REMARK  115  A    between atoms: _281  and  _284
REMARK  116  A    between atoms: _284  and  _285
REMARK  117  A    between atoms: _288  and  _290
REMARK  118  A    between atoms: _290  and  _291
REMARK  119  A    between atoms: _290  and  _293
REMARK  120  A    between atoms: _293  and  _294
REMARK  121  A    between atoms: _300  and  _302
REMARK  122  A    between atoms: _302  and  _303
REMARK  123  A    between atoms: _302  and  _305
REMARK  124  A    between atoms: _305  and  _306
REMARK  125  A    between atoms: _309  and  _311
REMARK  126  A    between atoms: _311  and  _312
REMARK  127  A    between atoms: _311  and  _314
REMARK  128  A    between atoms: _317  and  _319
REMARK  129  A    between atoms: _319  and  _320
REMARK  130  A    between atoms: _319  and  _322
REMARK  131  A    between atoms: _322  and  _323
REMARK  132  A    between atoms: _328  and  _330
REMARK  133  A    between atoms: _341  and  _344
REMARK  134  A    between atoms: _344  and  _345
REMARK  135  A    between atoms: _345  and  _346
REMARK  136  A    between atoms: _351  and  _354
REMARK  137  A    between atoms: _354  and  _355
REMARK  138  A    between atoms: _365  and  _366
REMARK  139  A    between atoms: _374  and  _376
REMARK  140  A    between atoms: _376  and  _377
REMARK  141  A    between atoms: _376  and  _379
REMARK  142  A    between atoms: _379  and  _380
REMARK  143  A    between atoms: _383  and  _385
REMARK  144  A    between atoms: _385  and  _386
REMARK  145  A    between atoms: _385  and  _388
REMARK  146  A    between atoms: _388  and  _389
REMARK  147  A    between atoms: _394  and  _395
REMARK  148  A    between atoms: _397  and  _399
REMARK  149  A    between atoms: _399  and  _400
REMARK  150  A    between atoms: _399  and  _402
REMARK  151  A    between atoms: _402  and  _403
REMARK  152  A    between atoms: _409  and  _411
REMARK  153  A    between atoms: _411  and  _412
REMARK  154  A    between atoms: _411  and  _414
REMARK  155  A    between atoms: _414  and  _415
REMARK  156  A    between atoms: _420  and  _421
REMARK  157  A    between atoms: _423  and  _425
REMARK  158  A    between atoms: _425  and  _426
REMARK  159  A    between atoms: _425  and  _428
REMARK  160  A    between atoms: _428  and  _429
REMARK  161  A    between atoms: _429  and  _430
REMARK  162  A    between atoms: _430  and  _431
REMARK  163  A    between atoms: _440  and  _442
REMARK  164  A    between atoms: _442  and  _443
REMARK  165  A    between atoms: _442  and  _445
REMARK  166  A    between atoms: _445  and  _446
REMARK  167  A    between atoms: _449  and  _451
REMARK  168  A    between atoms: _451  and  _452
REMARK  169  A    between atoms: _454  and  _456
REMARK  170  A    between atoms: _456  and  _457
REMARK  171  A    between atoms: _456  and  _459
REMARK  172  A    between atoms: _459  and  _460
REMARK  173  A    between atoms: _466  and  _467
REMARK  174  A    between atoms: _472  and  _474
REMARK  175  A    between atoms: _474  and  _475
REMARK  176  A    between atoms: _477  and  _479
REMARK  177  A    between atoms: _479  and  _480
REMARK  178  A    between atoms: _479  and  _482
REMARK  179  A    between atoms: _482  and  _483
REMARK  180  A    between atoms: _489  and  _491
REMARK  181  A    between atoms: _491  and  _492
REMARK  182  A    between atoms: _491  and  _494
REMARK  183  A    between atoms: _494  and  _495
REMARK  184  A    between atoms: _500  and  _502
REMARK  185  A    between atoms: _502  and  _503
REMARK  186  A    between atoms: _502  and  _505
REMARK  187  A    between atoms: _505  and  _506
REMARK  188  A    between atoms: _506  and  _507
REMARK  189  A    between atoms: _507  and  _508
REMARK  190  A    between atoms: _508  and  ZN_790
REMARK  191  A    between atoms: _510  and  _512
REMARK  192  A    between atoms: _512  and  _513
REMARK  193  A    between atoms: _516  and  _518
REMARK  194  A    between atoms: _518  and  _519
REMARK  195  A    between atoms: _521  and  _523
REMARK  196  A    between atoms: _523  and  _524
REMARK  197  A    between atoms: _523  and  _526
REMARK  198  A    between atoms: _526  and  _527
REMARK  199  A    between atoms: _530  and  _532
REMARK  200  A    between atoms: _532  and  _533
REMARK  201  A    between atoms: _532  and  _535
REMARK  202  A    between atoms: _538  and  _540
REMARK  203  A    between atoms: _540  and  _541
REMARK  204  A    between atoms: _540  and  _543
REMARK  205  A    between atoms: _543  and  _544
REMARK  206  A    between atoms: _546  and  _548
REMARK  207  A    between atoms: _548  and  _549
REMARK  208  A    between atoms: _548  and  _551
REMARK  209  A    between atoms: _551  and  _552
REMARK  210  A    between atoms: _555  and  _557
REMARK  211  A    between atoms: _557  and  _558
REMARK  212  A    between atoms: _557  and  _560
REMARK  213  A    between atoms: _560  and  _561
REMARK  214  A    between atoms: _563  and  _565
REMARK  215  A    between atoms: _565  and  _566
REMARK  216  A    between atoms: _565  and  _568
REMARK  217  A    between atoms: _568  and  _569
REMARK  218  A    between atoms: _572  and  _574
REMARK  219  A    between atoms: _574  and  _575
REMARK  220  A    between atoms: _574  and  _577
REMARK  221  A    between atoms: _577  and  _578
REMARK  222  A    between atoms: _578  and  _579
REMARK  223  A    between atoms: _579  and  _580
REMARK  224  A    between atoms: _580  and  _581
REMARK  225  A    between atoms: _585  and  _587
REMARK  226  A    between atoms: _587  and  _588
REMARK  227  A    between atoms: _587  and  _590
REMARK  228  A    between atoms: _590  and  _591
REMARK  229  A    between atoms: _597  and  _599
REMARK  230  A    between atoms: _599  and  _600
REMARK  231  A    between atoms: _599  and  _602
REMARK  232  A    between atoms: _602  and  _603
REMARK  233  A    between atoms: _609  and  _611
REMARK  234  A    between atoms: _611  and  _612
REMARK  235  A    between atoms: _615  and  _617
REMARK  236  A    between atoms: _617  and  _618
REMARK  237  A    between atoms: _617  and  _620
REMARK  238  A    between atoms: _620  and  _621
REMARK  239  A    between atoms: _621  and  _622
REMARK  240  A    between atoms: _624  and  _626
REMARK  241  A    between atoms: _626  and  _627
REMARK  242  A    between atoms: _626  and  _629
REMARK  243  A    between atoms: _629  and  _630
REMARK  244  A    between atoms: _630  and  _631
REMARK  245  A    between atoms: _631  and  _632
REMARK  246  A    between atoms: _632  and  _633
REMARK  247  A    between atoms: _637  and  _639
REMARK  248  A    between atoms: _639  and  _640
REMARK  249  A    between atoms: _639  and  _642
REMARK  250  A    between atoms: _642  and  _643
REMARK  251  A    between atoms: _648  and  _649
REMARK  252  A    between atoms: _651  and  _653
REMARK  253  A    between atoms: _653  and  _654
REMARK  254  A    between atoms: _653  and  _656
REMARK  255  A    between atoms: _656  and  _657
REMARK  256  A    between atoms: _662  and  _664
REMARK  257  A    between atoms: _664  and  _665
REMARK  258  A    between atoms: _664  and  _667
REMARK  259  A    between atoms: _667  and  _668
REMARK  260  A    between atoms: _671  and  _673
REMARK  261  A    between atoms: _673  and  _674
REMARK  262  A    between atoms: _677  and  _679
REMARK  263  A    between atoms: _679  and  _680
REMARK  264  A    between atoms: _679  and  _682
REMARK  265  A    between atoms: _682  and  _683
REMARK  266  A    between atoms: _686  and  _688
REMARK  267  A    between atoms: _688  and  _689
REMARK  268  A    between atoms: _688  and  _691
REMARK  269  A    between atoms: _694  and  _696
REMARK  270  A    between atoms: _696  and  _697
REMARK  271  A    between atoms: _696  and  _699
REMARK  272  A    between atoms: _699  and  _700
REMARK  273  A    between atoms: _700  and  _701
REMARK  274  A    between atoms: _704  and  _706
REMARK  275  A    between atoms: _706  and  _707
REMARK  276  A    between atoms: _706  and  _709
REMARK  277  A    between atoms: _709  and  _710
REMARK  278  A    between atoms: _715  and  _716
REMARK  279  A    between atoms: _718  and  _720
REMARK  280  A    between atoms: _720  and  _721
REMARK  281  A    between atoms: _720  and  _723
REMARK  282  A    between atoms: _723  and  _724
REMARK  283  A    between atoms: _724  and  _725
REMARK  284  A    between atoms: _725  and  _726
REMARK  285  A    between atoms: _735  and  _737
REMARK  286  A    between atoms: _737  and  _738
REMARK  287  A    between atoms: _737  and  _740
REMARK  288  A    between atoms: _740  and  _741
REMARK  289  A    between atoms: _746  and  _747
REMARK  290  A    between atoms: _749  and  _751
REMARK  291  A    between atoms: _751  and  _752
REMARK  292  A    between atoms: _751  and  _754
REMARK  293  A    between atoms: _754  and  _755
REMARK  294  A    between atoms: _758  and  _760
REMARK  295  A    between atoms: _760  and  _761
REMARK  296  A    between atoms: _760  and  _763
REMARK  297  A    between atoms: _763  and  _764
REMARK  298  A    between atoms: _766  and  _768
REMARK  299  A    between atoms: _768  and  _769
REMARK  300  A    between atoms: _768  and  _771
REMARK  301  A    between atoms: _771  and  _772
REMARK  302  A    between atoms: _778  and  _780
REMARK  303  A    between atoms: _780  and  _781
REMARK  304  A    between atoms: _780  and  _783
REMARK  305  A    between atoms: _783  and  _784
REMARK  306  A    between atoms: _784  and  _785
REMARK                            x       y       z     vdW  Elec       q    Type
REMARK                         _______ _______ _______ _____ _____    ______ ____
ROOT
ATOM      1  O   HOH     1      33.606  -2.841   3.233  0.00  0.00    +0.000 OA
ENDROOT
TORSDOF 0
REMARK  Name = ../refined-set-2016/4ca7/4ca7_pocket.pdb
REMARK  306 active torsions:
REMARK  status: ('A' for Active; 'I' for Inactive)
REMARK    1  A    between atoms: _1  and  _3
REMARK    2  A    between atoms: _3  and  _4
REMARK    3  A    between atoms: _3  and  _6
REMARK    4  A    between atoms: _6  and  _7
REMARK    5  A    between atoms: _7  and  _8
REMARK    6  A    between atoms: _8  and  _9
REMARK    7  A    between atoms: _9  and  _10
REMARK    8  A    between atoms: _14  and  _16
REMARK    9  A    between atoms: _16  and  _17
REMARK   10  A    between atoms: _16  and  _19
REMARK   11  A    between atoms: _19  and  _20
REMARK   12  A    between atoms: _20  and  _21
REMARK   13  A    between atoms: _24  and  _26
REMARK   14  A    between atoms: _26  and  _27
REMARK   15  A    between atoms: _26  and  _29
REMARK   16  A    between atoms: _29  and  _30
REMARK   17  A    between atoms: _30  and  _31
REMARK   18  A    between atoms: _34  and  _36
REMARK   19  A    between atoms: _36  and  _37
REMARK   20  A    between atoms: _36  and  _39
REMARK   21  A    between atoms: _39  and  _40
REMARK   22  A    between atoms: _45  and  _47
REMARK   23  A    between atoms: _47  and  _48
REMARK   24  A    between atoms: _47  and  _50
REMARK   25  A    between atoms: _50  and  _51
REMARK   26  A    between atoms: _61  and  _63
REMARK   27  A    between atoms: _63  and  _64
REMARK   28  A    between atoms: _63  and  _66
REMARK   29  A    between atoms: _66  and  _67
REMARK   30  A    between atoms: _67  and  _68
REMARK   31  A    between atoms: _73  and  _75
REMARK   32  A    between atoms: _75  and  _76
REMARK   33  A    between atoms: _75  and  _78
REMARK   34  A    between atoms: _78  and  _79
REMARK   35  A    between atoms: _79  and  _80
REMARK   36  A    between atoms: _85  and  _87
REMARK   37  A    between atoms: _87  and  _88
REMARK   38  A    between atoms: _87  and  _90
REMARK   39  A    between atoms: _90  and  _91
REMARK   40  A    between atoms: _93  and  _95
REMARK   41  A    between atoms: _95  and  _96
REMARK   42  A    between atoms: _95  and  _98
REMARK   43  A    between atoms: _101  and  _103
REMARK   44  A    between atoms: _103  and  _104
REMARK   45  A    between atoms: _103  and  _106
REMARK   46  A    between atoms: _108  and  _110
REMARK   47  A    between atoms: _110  and  _111
REMARK   48  A    between atoms: _110  and  _113
REMARK   49  A    between atoms: _113  and  _114
REMARK   50  A    between atoms: _119  and  _121
REMARK   51  A    between atoms: _121  and  _122
REMARK   52  A    between atoms: _125  and  _127
REMARK   53  A    between atoms: _127  and  _128
REMARK   54  A    between atoms: _127  and  _130
REMARK   55  A    between atoms: _130  and  _131
REMARK   56  A    between atoms: _133  and  _135
REMARK   57  A    between atoms: _135  and  _136
REMARK   58  A    between atoms: _139  and  _141
REMARK   59  A    between atoms: _141  and  _142
REMARK   60  A    between atoms: _141  and  _144
REMARK   61  A    between atoms: _144  and  _145
REMARK   62  A    between atoms: _155  and  _157
REMARK   63  A    between atoms: _157  and  _158
REMARK   64  A    between atoms: _157  and  _160
REMARK   65  A    between atoms: _160  and  _161
REMARK   66  A    between atoms: _164  and  _166
REMARK   67  A    between atoms: _166  and  _167
REMARK   68  A    between atoms: _166  and  _169
REMARK   69  A    between atoms: _169  and  _170
REMARK   70  A    between atoms: _175  and  _176
REMARK   71  A    between atoms: _178  and  _180
REMARK   72  A    between atoms: _180  and  _181
REMARK   73  A    between atoms: _180  and  _183
REMARK   74  A    between atoms: _183  and  _184
REMARK   75  A    between atoms: _184  and  _185
REMARK   76  A    between atoms: _185  and  _186
REMARK   77  A    between atoms: _195  and  _197
REMARK   78  A    between atoms: _197  and  _198
REMARK   79  A    between atoms: _197  and  _200
REMARK   80  A    between atoms: _200  and  _201
REMARK   81  A    between atoms: _204  and  _206
REMARK   82  A    between atoms: _206  and  _207
REMARK   83  A    between atoms: _206  and  _209
REMARK   84  A    between atoms: _209  and  _210
REMARK   85  A    between atoms: _210  and  _211
REMARK   86  A    between atoms: _211  and  _212
REMARK   87  A    between atoms: _212  and  _213
REMARK   88  A    between atoms: _217  and  _219
REMARK   89  A    between atoms: _219  and  _220
REMARK   90  A    between atoms: _219  and  _222
REMARK   91  A    between atoms: _222  and  _223
REMARK   92  A    between atoms: _223  and  _224
REMARK   93  A    between atoms: _229  and  _231
REMARK   94  A    between atoms: _231  and  _232
REMARK   95  A    between atoms: _231  and  _234
REMARK   96  A    between atoms: _234  and  _235
REMARK   97  A    between atoms: _235  and  _236
REMARK   98  A    between atoms: _236  and  _237
REMARK   99  A    between atoms: _246  and  _248
REMARK  100  A    between atoms: _248  and  _249
REMARK  101  A    between atoms: _248  and  _251
REMARK  102  A    between atoms: _251  and  _252
REMARK  103  A    between atoms: _252  and  _253
REMARK  104  A    between atoms: _258  and  _260
REMARK  105  A    between atoms: _260  and  _261
REMARK  106  A    between atoms: _260  and  _263
REMARK  107  A    between atoms: _263  and  _264
REMARK  108  A    between atoms: _267  and  _269
REMARK  109  A    between atoms: _269  and  _270
REMARK  110  A    between atoms: _269  and  _272
REMARK  111  A    between atoms: _272  and  _273
REMARK  112  A    between atoms: _273  and  _274
REMARK  113  A    between atoms: _279  and  _281
REMARK  114  A    between atoms: _281  and  _282
REMARK  115  A    between atoms: _281  and  _284
REMARK  116  A    between atoms: _284  and  _285
REMARK  117  A    between atoms: _288  and  _290
REMARK  118  A    between atoms: _290  and  _291
REMARK  119  A    between atoms: _290  and  _293
REMARK  120  A    between atoms: _293  and  _294
REMARK  121  A    between atoms: _300  and  _302
REMARK  122  A    between atoms: _302  and  _303
REMARK  123  A    between atoms: _302  and  _305
REMARK  124  A    between atoms: _305  and  _306
REMARK  125  A    between atoms: _309  and  _311
REMARK  126  A    between atoms: _311  and  _312
REMARK  127  A    between atoms: _311  and  _314
REMARK  128  A    between atoms: _317  and  _319
REMARK  129  A    between atoms: _319  and  _320
REMARK  130  A    between atoms: _319  and  _322
REMARK  131  A    between atoms: _322  and  _323
REMARK  132  A    between atoms: _328  and  _330
REMARK  133  A    between atoms: _341  and  _344
REMARK  134  A    between atoms: _344  and  _345
REMARK  135  A    between atoms: _345  and  _346
REMARK  136  A    between atoms: _351  and  _354
REMARK  137  A    between atoms: _354  and  _355
REMARK  138  A    between atoms: _365  and  _366
REMARK  139  A    between atoms: _374  and  _376
REMARK  140  A    between atoms: _376  and  _377
REMARK  141  A    between atoms: _376  and  _379
REMARK  142  A    between atoms: _379  and  _380
REMARK  143  A    between atoms: _383  and  _385
REMARK  144  A    between atoms: _385  and  _386
REMARK  145  A    between atoms: _385  and  _388
REMARK  146  A    between atoms: _388  and  _389
REMARK  147  A    between atoms: _394  and  _395
REMARK  148  A    between atoms: _397  and  _399
REMARK  149  A    between atoms: _399  and  _400
REMARK  150  A    between atoms: _399  and  _402
REMARK  151  A    between atoms: _402  and  _403
REMARK  152  A    between atoms: _409  and  _411
REMARK  153  A    between atoms: _411  and  _412
REMARK  154  A    between atoms: _411  and  _414
REMARK  155  A    between atoms: _414  and  _415
REMARK  156  A    between atoms: _420  and  _421
REMARK  157  A    between atoms: _423  and  _425
REMARK  158  A    between atoms: _425  and  _426
REMARK  159  A    between atoms: _425  and  _428
REMARK  160  A    between atoms: _428  and  _429
REMARK  161  A    between atoms: _429  and  _430
REMARK  162  A    between atoms: _430  and  _431
REMARK  163  A    between atoms: _440  and  _442
REMARK  164  A    between atoms: _442  and  _443
REMARK  165  A    between atoms: _442  and  _445
REMARK  166  A    between atoms: _445  and  _446
REMARK  167  A    between atoms: _449  and  _451
REMARK  168  A    between atoms: _451  and  _452
REMARK  169  A    between atoms: _454  and  _456
REMARK  170  A    between atoms: _456  and  _457
REMARK  171  A    between atoms: _456  and  _459
REMARK  172  A    between atoms: _459  and  _460
REMARK  173  A    between atoms: _466  and  _467
REMARK  174  A    between atoms: _472  and  _474
REMARK  175  A    between atoms: _474  and  _475
REMARK  176  A    between atoms: _477  and  _479
REMARK  177  A    between atoms: _479  and  _480
REMARK  178  A    between atoms: _479  and  _482
REMARK  179  A    between atoms: _482  and  _483
REMARK  180  A    between atoms: _489  and  _491
REMARK  181  A    between atoms: _491  and  _492
REMARK  182  A    between atoms: _491  and  _494
REMARK  183  A    between atoms: _494  and  _495
REMARK  184  A    between atoms: _500  and  _502
REMARK  185  A    between atoms: _502  and  _503
REMARK  186  A    between atoms: _502  and  _505
REMARK  187  A    between atoms: _505  and  _506
REMARK  188  A    between atoms: _506  and  _507
REMARK  189  A    between atoms: _507  and  _508
REMARK  190  A    between atoms: _508  and  ZN_790
REMARK  191  A    between atoms: _510  and  _512
REMARK  192  A    between atoms: _512  and  _513
REMARK  193  A    between atoms: _516  and  _518
REMARK  194  A    between atoms: _518  and  _519
REMARK  195  A    between atoms: _521  and  _523
REMARK  196  A    between atoms: _523  and  _524
REMARK  197  A    between atoms: _523  and  _526
REMARK  198  A    between atoms: _526  and  _527
REMARK  199  A    between atoms: _530  and  _532
REMARK  200  A    between atoms: _532  and  _533
REMARK  201  A    between atoms: _532  and  _535
REMARK  202  A    between atoms: _538  and  _540
REMARK  203  A    between atoms: _540  and  _541
REMARK  204  A    between atoms: _540  and  _543
REMARK  205  A    between atoms: _543  and  _544
REMARK  206  A    between atoms: _546  and  _548
REMARK  207  A    between atoms: _548  and  _549
REMARK  208  A    between atoms: _548  and  _551
REMARK  209  A    between atoms: _551  and  _552
REMARK  210  A    between atoms: _555  and  _557
REMARK  211  A    between atoms: _557  and  _558
REMARK  212  A    between atoms: _557  and  _560
REMARK  213  A    between atoms: _560  and  _561
REMARK  214  A    between atoms: _563  and  _565
REMARK  215  A    between atoms: _565  and  _566
REMARK  216  A    between atoms: _565  and  _568
REMARK  217  A    between atoms: _568  and  _569
REMARK  218  A    between atoms: _572  and  _574
REMARK  219  A    between atoms: _574  and  _575
REMARK  220  A    between atoms: _574  and  _577
REMARK  221  A    between atoms: _577  and  _578
REMARK  222  A    between atoms: _578  and  _579
REMARK  223  A    between atoms: _579  and  _580
REMARK  224  A    between atoms: _580  and  _581
REMARK  225  A    between atoms: _585  and  _587
REMARK  226  A    between atoms: _587  and  _588
REMARK  227  A    between atoms: _587  and  _590
REMARK  228  A    between atoms: _590  and  _591
REMARK  229  A    between atoms: _597  and  _599
REMARK  230  A    between atoms: _599  and  _600
REMARK  231  A    between atoms: _599  and  _602
REMARK  232  A    between atoms: _602  and  _603
REMARK  233  A    between atoms: _609  and  _611
REMARK  234  A    between atoms: _611  and  _612
REMARK  235  A    between atoms: _615  and  _617
REMARK  236  A    between atoms: _617  and  _618
REMARK  237  A    between atoms: _617  and  _620
REMARK  238  A    between atoms: _620  and  _621
REMARK  239  A    between atoms: _621  and  _622
REMARK  240  A    between atoms: _624  and  _626
REMARK  241  A    between atoms: _626  and  _627
REMARK  242  A    between atoms: _626  and  _629
REMARK  243  A    between atoms: _629  and  _630
REMARK  244  A    between atoms: _630  and  _631
REMARK  245  A    between atoms: _631  and  _632
REMARK  246  A    between atoms: _632  and  _633
REMARK  247  A    between atoms: _637  and  _639
REMARK  248  A    between atoms: _639  and  _640
REMARK  249  A    between atoms: _639  and  _642
REMARK  250  A    between atoms: _642  and  _643
REMARK  251  A    between atoms: _648  and  _649
REMARK  252  A    between atoms: _651  and  _653
REMARK  253  A    between atoms: _653  and  _654
REMARK  254  A    between atoms: _653  and  _656
REMARK  255  A    between atoms: _656  and  _657
REMARK  256  A    between atoms: _662  and  _664
REMARK  257  A    between atoms: _664  and  _665
REMARK  258  A    between atoms: _664  and  _667
REMARK  259  A    between atoms: _667  and  _668
REMARK  260  A    between atoms: _671  and  _673
REMARK  261  A    between atoms: _673  and  _674
REMARK  262  A    between atoms: _677  and  _679
REMARK  263  A    between atoms: _679  and  _680
REMARK  264  A    between atoms: _679  and  _682
REMARK  265  A    between atoms: _682  and  _683
REMARK  266  A    between atoms: _686  and  _688
REMARK  267  A    between atoms: _688  and  _689
REMARK  268  A    between atoms: _688  and  _691
REMARK  269  A    between atoms: _694  and  _696
REMARK  270  A    between atoms: _696  and  _697
REMARK  271  A    between atoms: _696  and  _699
REMARK  272  A    between atoms: _699  and  _700
REMARK  273  A    between atoms: _700  and  _701
REMARK  274  A    between atoms: _704  and  _706
REMARK  275  A    between atoms: _706  and  _707
REMARK  276  A    between atoms: _706  and  _709
REMARK  277  A    between atoms: _709  and  _710
REMARK  278  A    between atoms: _715  and  _716
REMARK  279  A    between atoms: _718  and  _720
REMARK  280  A    between atoms: _720  and  _721
REMARK  281  A    between atoms: _720  and  _723
REMARK  282  A    between atoms: _723  and  _724
REMARK  283  A    between atoms: _724  and  _725
REMARK  284  A    between atoms: _725  and  _726
REMARK  285  A    between atoms: _735  and  _737
REMARK  286  A    between atoms: _737  and  _738
REMARK  287  A    between atoms: _737  and  _740
REMARK  288  A    between atoms: _740  and  _741
REMARK  289  A    between atoms: _746  and  _747
REMARK  290  A    between atoms: _749  and  _751
REMARK  291  A    between atoms: _751  and  _752
REMARK  292  A    between atoms: _751  and  _754
REMARK  293  A    between atoms: _754  and  _755
REMARK  294  A    between atoms: _758  and  _760
REMARK  295  A    between atoms: _760  and  _761
REMARK  296  A    between atoms: _760  and  _763
REMARK  297  A    between atoms: _763  and  _764
REMARK  298  A    between atoms: _766  and  _768
REMARK  299  A    between atoms: _768  and  _769
REMARK  300  A    between atoms: _768  and  _771
REMARK  301  A    between atoms: _771  and  _772
REMARK  302  A    between atoms: _778  and  _780
REMARK  303  A    between atoms: _780  and  _781
REMARK  304  A    between atoms: _780  and  _783
REMARK  305  A    between atoms: _783  and  _784
REMARK  306  A    between atoms: _784  and  _785
REMARK                            x       y       z     vdW  Elec       q    Type
REMARK                         _______ _______ _______ _____ _____    ______ ____
ROOT
ATOM      1  O   HOH     1      31.453   8.849   9.941  0.00  0.00    +0.000 OA
ENDROOT
TORSDOF 0
REMARK  Name = ../refined-set-2016/4ca7/4ca7_pocket.pdb
REMARK  306 active torsions:
REMARK  status: ('A' for Active; 'I' for Inactive)
REMARK    1  A    between atoms: _1  and  _3
REMARK    2  A    between atoms: _3  and  _4
REMARK    3  A    between atoms: _3  and  _6
REMARK    4  A    between atoms: _6  and  _7
REMARK    5  A    between atoms: _7  and  _8
REMARK    6  A    between atoms: _8  and  _9
REMARK    7  A    between atoms: _9  and  _10
REMARK    8  A    between atoms: _14  and  _16
REMARK    9  A    between atoms: _16  and  _17
REMARK   10  A    between atoms: _16  and  _19
REMARK   11  A    between atoms: _19  and  _20
REMARK   12  A    between atoms: _20  and  _21
REMARK   13  A    between atoms: _24  and  _26
REMARK   14  A    between atoms: _26  and  _27
REMARK   15  A    between atoms: _26  and  _29
REMARK   16  A    between atoms: _29  and  _30
REMARK   17  A    between atoms: _30  and  _31
REMARK   18  A    between atoms: _34  and  _36
REMARK   19  A    between atoms: _36  and  _37
REMARK   20  A    between atoms: _36  and  _39
REMARK   21  A    between atoms: _39  and  _40
REMARK   22  A    between atoms: _45  and  _47
REMARK   23  A    between atoms: _47  and  _48
REMARK   24  A    between atoms: _47  and  _50
REMARK   25  A    between atoms: _50  and  _51
REMARK   26  A    between atoms: _61  and  _63
REMARK   27  A    between atoms: _63  and  _64
REMARK   28  A    between atoms: _63  and  _66
REMARK   29  A    between atoms: _66  and  _67
REMARK   30  A    between atoms: _67  and  _68
REMARK   31  A    between atoms: _73  and  _75
REMARK   32  A    between atoms: _75  and  _76
REMARK   33  A    between atoms: _75  and  _78
REMARK   34  A    between atoms: _78  and  _79
REMARK   35  A    between atoms: _79  and  _80
REMARK   36  A    between atoms: _85  and  _87
REMARK   37  A    between atoms: _87  and  _88
REMARK   38  A    between atoms: _87  and  _90
REMARK   39  A    between atoms: _90  and  _91
REMARK   40  A    between atoms: _93  and  _95
REMARK   41  A    between atoms: _95  and  _96
REMARK   42  A    between atoms: _95  and  _98
REMARK   43  A    between atoms: _101  and  _103
REMARK   44  A    between atoms: _103  and  _104
REMARK   45  A    between atoms: _103  and  _106
REMARK   46  A    between atoms: _108  and  _110
REMARK   47  A    between atoms: _110  and  _111
REMARK   48  A    between atoms: _110  and  _113
REMARK   49  A    between atoms: _113  and  _114
REMARK   50  A    between atoms: _119  and  _121
REMARK   51  A    between atoms: _121  and  _122
REMARK   52  A    between atoms: _125  and  _127
REMARK   53  A    between atoms: _127  and  _128
REMARK   54  A    between atoms: _127  and  _130
REMARK   55  A    between atoms: _130  and  _131
REMARK   56  A    between atoms: _133  and  _135
REMARK   57  A    between atoms: _135  and  _136
REMARK   58  A    between atoms: _139  and  _141
REMARK   59  A    between atoms: _141  and  _142
REMARK   60  A    between atoms: _141  and  _144
REMARK   61  A    between atoms: _144  and  _145
REMARK   62  A    between atoms: _155  and  _157
REMARK   63  A    between atoms: _157  and  _158
REMARK   64  A    between atoms: _157  and  _160
REMARK   65  A    between atoms: _160  and  _161
REMARK   66  A    between atoms: _164  and  _166
REMARK   67  A    between atoms: _166  and  _167
REMARK   68  A    between atoms: _166  and  _169
REMARK   69  A    between atoms: _169  and  _170
REMARK   70  A    between atoms: _175  and  _176
REMARK   71  A    between atoms: _178  and  _180
REMARK   72  A    between atoms: _180  and  _181
REMARK   73  A    between atoms: _180  and  _183
REMARK   74  A    between atoms: _183  and  _184
REMARK   75  A    between atoms: _184  and  _185
REMARK   76  A    between atoms: _185  and  _186
REMARK   77  A    between atoms: _195  and  _197
REMARK   78  A    between atoms: _197  and  _198
REMARK   79  A    between atoms: _197  and  _200
REMARK   80  A    between atoms: _200  and  _201
REMARK   81  A    between atoms: _204  and  _206
REMARK   82  A    between atoms: _206  and  _207
REMARK   83  A    between atoms: _206  and  _209
REMARK   84  A    between atoms: _209  and  _210
REMARK   85  A    between atoms: _210  and  _211
REMARK   86  A    between atoms: _211  and  _212
REMARK   87  A    between atoms: _212  and  _213
REMARK   88  A    between atoms: _217  and  _219
REMARK   89  A    between atoms: _219  and  _220
REMARK   90  A    between atoms: _219  and  _222
REMARK   91  A    between atoms: _222  and  _223
REMARK   92  A    between atoms: _223  and  _224
REMARK   93  A    between atoms: _229  and  _231
REMARK   94  A    between atoms: _231  and  _232
REMARK   95  A    between atoms: _231  and  _234
REMARK   96  A    between atoms: _234  and  _235
REMARK   97  A    between atoms: _235  and  _236
REMARK   98  A    between atoms: _236  and  _237
REMARK   99  A    between atoms: _246  and  _248
REMARK  100  A    between atoms: _248  and  _249
REMARK  101  A    between atoms: _248  and  _251
REMARK  102  A    between atoms: _251  and  _252
REMARK  103  A    between atoms: _252  and  _253
REMARK  104  A    between atoms: _258  and  _260
REMARK  105  A    between atoms: _260  and  _261
REMARK  106  A    between atoms: _260  and  _263
REMARK  107  A    between atoms: _263  and  _264
REMARK  108  A    between atoms: _267  and  _269
REMARK  109  A    between atoms: _269  and  _270
REMARK  110  A    between atoms: _269  and  _272
REMARK  111  A    between atoms: _272  and  _273
REMARK  112  A    between atoms: _273  and  _274
REMARK  113  A    between atoms: _279  and  _281
REMARK  114  A    between atoms: _281  and  _282
REMARK  115  A    between atoms: _281  and  _284
REMARK  116  A    between atoms: _284  and  _285
REMARK  117  A    between atoms: _288  and  _290
REMARK  118  A    between atoms: _290  and  _291
REMARK  119  A    between atoms: _290  and  _293
REMARK  120  A    between atoms: _293  and  _294
REMARK  121  A    between atoms: _300  and  _302
REMARK  122  A    between atoms: _302  and  _303
REMARK  123  A    between atoms: _302  and  _305
REMARK  124  A    between atoms: _305  and  _306
REMARK  125  A    between atoms: _309  and  _311
REMARK  126  A    between atoms: _311  and  _312
REMARK  127  A    between atoms: _311  and  _314
REMARK  128  A    between atoms: _317  and  _319
REMARK  129  A    between atoms: _319  and  _320
REMARK  130  A    between atoms: _319  and  _322
REMARK  131  A    between atoms: _322  and  _323
REMARK  132  A    between atoms: _328  and  _330
REMARK  133  A    between atoms: _341  and  _344
REMARK  134  A    between atoms: _344  and  _345
REMARK  135  A    between atoms: _345  and  _346
REMARK  136  A    between atoms: _351  and  _354
REMARK  137  A    between atoms: _354  and  _355
REMARK  138  A    between atoms: _365  and  _366
REMARK  139  A    between atoms: _374  and  _376
REMARK  140  A    between atoms: _376  and  _377
REMARK  141  A    between atoms: _376  and  _379
REMARK  142  A    between atoms: _379  and  _380
REMARK  143  A    between atoms: _383  and  _385
REMARK  144  A    between atoms: _385  and  _386
REMARK  145  A    between atoms: _385  and  _388
REMARK  146  A    between atoms: _388  and  _389
REMARK  147  A    between atoms: _394  and  _395
REMARK  148  A    between atoms: _397  and  _399
REMARK  149  A    between atoms: _399  and  _400
REMARK  150  A    between atoms: _399  and  _402
REMARK  151  A    between atoms: _402  and  _403
REMARK  152  A    between atoms: _409  and  _411
REMARK  153  A    between atoms: _411  and  _412
REMARK  154  A    between atoms: _411  and  _414
REMARK  155  A    between atoms: _414  and  _415
REMARK  156  A    between atoms: _420  and  _421
REMARK  157  A    between atoms: _423  and  _425
REMARK  158  A    between atoms: _425  and  _426
REMARK  159  A    between atoms: _425  and  _428
REMARK  160  A    between atoms: _428  and  _429
REMARK  161  A    between atoms: _429  and  _430
REMARK  162  A    between atoms: _430  and  _431
REMARK  163  A    between atoms: _440  and  _442
REMARK  164  A    between atoms: _442  and  _443
REMARK  165  A    between atoms: _442  and  _445
REMARK  166  A    between atoms: _445  and  _446
REMARK  167  A    between atoms: _449  and  _451
REMARK  168  A    between atoms: _451  and  _452
REMARK  169  A    between atoms: _454  and  _456
REMARK  170  A    between atoms: _456  and  _457
REMARK  171  A    between atoms: _456  and  _459
REMARK  172  A    between atoms: _459  and  _460
REMARK  173  A    between atoms: _466  and  _467
REMARK  174  A    between atoms: _472  and  _474
REMARK  175  A    between atoms: _474  and  _475
REMARK  176  A    between atoms: _477  and  _479
REMARK  177  A    between atoms: _479  and  _480
REMARK  178  A    between atoms: _479  and  _482
REMARK  179  A    between atoms: _482  and  _483
REMARK  180  A    between atoms: _489  and  _491
REMARK  181  A    between atoms: _491  and  _492
REMARK  182  A    between atoms: _491  and  _494
REMARK  183  A    between atoms: _494  and  _495
REMARK  184  A    between atoms: _500  and  _502
REMARK  185  A    between atoms: _502  and  _503
REMARK  186  A    between atoms: _502  and  _505
REMARK  187  A    between atoms: _505  and  _506
REMARK  188  A    between atoms: _506  and  _507
REMARK  189  A    between atoms: _507  and  _508
REMARK  190  A    between atoms: _508  and  ZN_790
REMARK  191  A    between atoms: _510  and  _512
REMARK  192  A    between atoms: _512  and  _513
REMARK  193  A    between atoms: _516  and  _518
REMARK  194  A    between atoms: _518  and  _519
REMARK  195  A    between atoms: _521  and  _523
REMARK  196  A    between atoms: _523  and  _524
REMARK  197  A    between atoms: _523  and  _526
REMARK  198  A    between atoms: _526  and  _527
REMARK  199  A    between atoms: _530  and  _532
REMARK  200  A    between atoms: _532  and  _533
REMARK  201  A    between atoms: _532  and  _535
REMARK  202  A    between atoms: _538  and  _540
REMARK  203  A    between atoms: _540  and  _541
REMARK  204  A    between atoms: _540  and  _543
REMARK  205  A    between atoms: _543  and  _544
REMARK  206  A    between atoms: _546  and  _548
REMARK  207  A    between atoms: _548  and  _549
REMARK  208  A    between atoms: _548  and  _551
REMARK  209  A    between atoms: _551  and  _552
REMARK  210  A    between atoms: _555  and  _557
REMARK  211  A    between atoms: _557  and  _558
REMARK  212  A    between atoms: _557  and  _560
REMARK  213  A    between atoms: _560  and  _561
REMARK  214  A    between atoms: _563  and  _565
REMARK  215  A    between atoms: _565  and  _566
REMARK  216  A    between atoms: _565  and  _568
REMARK  217  A    between atoms: _568  and  _569
REMARK  218  A    between atoms: _572  and  _574
REMARK  219  A    between atoms: _574  and  _575
REMARK  220  A    between atoms: _574  and  _577
REMARK  221  A    between atoms: _577  and  _578
REMARK  222  A    between atoms: _578  and  _579
REMARK  223  A    between atoms: _579  and  _580
REMARK  224  A    between atoms: _580  and  _581
REMARK  225  A    between atoms: _585  and  _587
REMARK  226  A    between atoms: _587  and  _588
REMARK  227  A    between atoms: _587  and  _590
REMARK  228  A    between atoms: _590  and  _591
REMARK  229  A    between atoms: _597  and  _599
REMARK  230  A    between atoms: _599  and  _600
REMARK  231  A    between atoms: _599  and  _602
REMARK  232  A    between atoms: _602  and  _603
REMARK  233  A    between atoms: _609  and  _611
REMARK  234  A    between atoms: _611  and  _612
REMARK  235  A    between atoms: _615  and  _617
REMARK  236  A    between atoms: _617  and  _618
REMARK  237  A    between atoms: _617  and  _620
REMARK  238  A    between atoms: _620  and  _621
REMARK  239  A    between atoms: _621  and  _622
REMARK  240  A    between atoms: _624  and  _626
REMARK  241  A    between atoms: _626  and  _627
REMARK  242  A    between atoms: _626  and  _629
REMARK  243  A    between atoms: _629  and  _630
REMARK  244  A    between atoms: _630  and  _631
REMARK  245  A    between atoms: _631  and  _632
REMARK  246  A    between atoms: _632  and  _633
REMARK  247  A    between atoms: _637  and  _639
REMARK  248  A    between atoms: _639  and  _640
REMARK  249  A    between atoms: _639  and  _642
REMARK  250  A    between atoms: _642  and  _643
REMARK  251  A    between atoms: _648  and  _649
REMARK  252  A    between atoms: _651  and  _653
REMARK  253  A    between atoms: _653  and  _654
REMARK  254  A    between atoms: _653  and  _656
REMARK  255  A    between atoms: _656  and  _657
REMARK  256  A    between atoms: _662  and  _664
REMARK  257  A    between atoms: _664  and  _665
REMARK  258  A    between atoms: _664  and  _667
REMARK  259  A    between atoms: _667  and  _668
REMARK  260  A    between atoms: _671  and  _673
REMARK  261  A    between atoms: _673  and  _674
REMARK  262  A    between atoms: _677  and  _679
REMARK  263  A    between atoms: _679  and  _680
REMARK  264  A    between atoms: _679  and  _682
REMARK  265  A    between atoms: _682  and  _683
REMARK  266  A    between atoms: _686  and  _688
REMARK  267  A    between atoms: _688  and  _689
REMARK  268  A    between atoms: _688  and  _691
REMARK  269  A    between atoms: _694  and  _696
REMARK  270  A    between atoms: _696  and  _697
REMARK  271  A    between atoms: _696  and  _699
REMARK  272  A    between atoms: _699  and  _700
REMARK  273  A    between atoms: _700  and  _701
REMARK  274  A    between atoms: _704  and  _706
REMARK  275  A    between atoms: _706  and  _707
REMARK  276  A    between atoms: _706  and  _709
REMARK  277  A    between atoms: _709  and  _710
REMARK  278  A    between atoms: _715  and  _716
REMARK  279  A    between atoms: _718  and  _720
REMARK  280  A    between atoms: _720  and  _721
REMARK  281  A    between atoms: _720  and  _723
REMARK  282  A    between atoms: _723  and  _724
REMARK  283  A    between atoms: _724  and  _725
REMARK  284  A    between atoms: _725  and  _726
REMARK  285  A    between atoms: _735  and  _737
REMARK  286  A    between atoms: _737  and  _738
REMARK  287  A    between atoms: _737  and  _740
REMARK  288  A    between atoms: _740  and  _741
REMARK  289  A    between atoms: _746  and  _747
REMARK  290  A    between atoms: _749  and  _751
REMARK  291  A    between atoms: _751  and  _752
REMARK  292  A    between atoms: _751  and  _754
REMARK  293  A    between atoms: _754  and  _755
REMARK  294  A    between atoms: _758  and  _760
REMARK  295  A    between atoms: _760  and  _761
REMARK  296  A    between atoms: _760  and  _763
REMARK  297  A    between atoms: _763  and  _764
REMARK  298  A    between atoms: _766  and  _768
REMARK  299  A    between atoms: _768  and  _769
REMARK  300  A    between atoms: _768  and  _771
REMARK  301  A    between atoms: _771  and  _772
REMARK  302  A    between atoms: _778  and  _780
REMARK  303  A    between atoms: _780  and  _781
REMARK  304  A    between atoms: _780  and  _783
REMARK  305  A    between atoms: _783  and  _784
REMARK  306  A    between atoms: _784  and  _785
REMARK                            x       y       z     vdW  Elec       q    Type
REMARK                         _______ _______ _______ _____ _____    ______ ____
ROOT
ATOM      1  O   HOH     1      29.522   8.123   8.720  0.00  0.00    +0.000 OA
ENDROOT
TORSDOF 0
REMARK  Name = ../refined-set-2016/4ca7/4ca7_pocket.pdb
REMARK  306 active torsions:
REMARK  status: ('A' for Active; 'I' for Inactive)
REMARK    1  A    between atoms: _1  and  _3
REMARK    2  A    between atoms: _3  and  _4
REMARK    3  A    between atoms: _3  and  _6
REMARK    4  A    between atoms: _6  and  _7
REMARK    5  A    between atoms: _7  and  _8
REMARK    6  A    between atoms: _8  and  _9
REMARK    7  A    between atoms: _9  and  _10
REMARK    8  A    between atoms: _14  and  _16
REMARK    9  A    between atoms: _16  and  _17
REMARK   10  A    between atoms: _16  and  _19
REMARK   11  A    between atoms: _19  and  _20
REMARK   12  A    between atoms: _20  and  _21
REMARK   13  A    between atoms: _24  and  _26
REMARK   14  A    between atoms: _26  and  _27
REMARK   15  A    between atoms: _26  and  _29
REMARK   16  A    between atoms: _29  and  _30
REMARK   17  A    between atoms: _30  and  _31
REMARK   18  A    between atoms: _34  and  _36
REMARK   19  A    between atoms: _36  and  _37
REMARK   20  A    between atoms: _36  and  _39
REMARK   21  A    between atoms: _39  and  _40
REMARK   22  A    between atoms: _45  and  _47
REMARK   23  A    between atoms: _47  and  _48
REMARK   24  A    between atoms: _47  and  _50
REMARK   25  A    between atoms: _50  and  _51
REMARK   26  A    between atoms: _61  and  _63
REMARK   27  A    between atoms: _63  and  _64
REMARK   28  A    between atoms: _63  and  _66
REMARK   29  A    between atoms: _66  and  _67
REMARK   30  A    between atoms: _67  and  _68
REMARK   31  A    between atoms: _73  and  _75
REMARK   32  A    between atoms: _75  and  _76
REMARK   33  A    between atoms: _75  and  _78
REMARK   34  A    between atoms: _78  and  _79
REMARK   35  A    between atoms: _79  and  _80
REMARK   36  A    between atoms: _85  and  _87
REMARK   37  A    between atoms: _87  and  _88
REMARK   38  A    between atoms: _87  and  _90
REMARK   39  A    between atoms: _90  and  _91
REMARK   40  A    between atoms: _93  and  _95
REMARK   41  A    between atoms: _95  and  _96
REMARK   42  A    between atoms: _95  and  _98
REMARK   43  A    between atoms: _101  and  _103
REMARK   44  A    between atoms: _103  and  _104
REMARK   45  A    between atoms: _103  and  _106
REMARK   46  A    between atoms: _108  and  _110
REMARK   47  A    between atoms: _110  and  _111
REMARK   48  A    between atoms: _110  and  _113
REMARK   49  A    between atoms: _113  and  _114
REMARK   50  A    between atoms: _119  and  _121
REMARK   51  A    between atoms: _121  and  _122
REMARK   52  A    between atoms: _125  and  _127
REMARK   53  A    between atoms: _127  and  _128
REMARK   54  A    between atoms: _127  and  _130
REMARK   55  A    between atoms: _130  and  _131
REMARK   56  A    between atoms: _133  and  _135
REMARK   57  A    between atoms: _135  and  _136
REMARK   58  A    between atoms: _139  and  _141
REMARK   59  A    between atoms: _141  and  _142
REMARK   60  A    between atoms: _141  and  _144
REMARK   61  A    between atoms: _144  and  _145
REMARK   62  A    between atoms: _155  and  _157
REMARK   63  A    between atoms: _157  and  _158
REMARK   64  A    between atoms: _157  and  _160
REMARK   65  A    between atoms: _160  and  _161
REMARK   66  A    between atoms: _164  and  _166
REMARK   67  A    between atoms: _166  and  _167
REMARK   68  A    between atoms: _166  and  _169
REMARK   69  A    between atoms: _169  and  _170
REMARK   70  A    between atoms: _175  and  _176
REMARK   71  A    between atoms: _178  and  _180
REMARK   72  A    between atoms: _180  and  _181
REMARK   73  A    between atoms: _180  and  _183
REMARK   74  A    between atoms: _183  and  _184
REMARK   75  A    between atoms: _184  and  _185
REMARK   76  A    between atoms: _185  and  _186
REMARK   77  A    between atoms: _195  and  _197
REMARK   78  A    between atoms: _197  and  _198
REMARK   79  A    between atoms: _197  and  _200
REMARK   80  A    between atoms: _200  and  _201
REMARK   81  A    between atoms: _204  and  _206
REMARK   82  A    between atoms: _206  and  _207
REMARK   83  A    between atoms: _206  and  _209
REMARK   84  A    between atoms: _209  and  _210
REMARK   85  A    between atoms: _210  and  _211
REMARK   86  A    between atoms: _211  and  _212
REMARK   87  A    between atoms: _212  and  _213
REMARK   88  A    between atoms: _217  and  _219
REMARK   89  A    between atoms: _219  and  _220
REMARK   90  A    between atoms: _219  and  _222
REMARK   91  A    between atoms: _222  and  _223
REMARK   92  A    between atoms: _223  and  _224
REMARK   93  A    between atoms: _229  and  _231
REMARK   94  A    between atoms: _231  and  _232
REMARK   95  A    between atoms: _231  and  _234
REMARK   96  A    between atoms: _234  and  _235
REMARK   97  A    between atoms: _235  and  _236
REMARK   98  A    between atoms: _236  and  _237
REMARK   99  A    between atoms: _246  and  _248
REMARK  100  A    between atoms: _248  and  _249
REMARK  101  A    between atoms: _248  and  _251
REMARK  102  A    between atoms: _251  and  _252
REMARK  103  A    between atoms: _252  and  _253
REMARK  104  A    between atoms: _258  and  _260
REMARK  105  A    between atoms: _260  and  _261
REMARK  106  A    between atoms: _260  and  _263
REMARK  107  A    between atoms: _263  and  _264
REMARK  108  A    between atoms: _267  and  _269
REMARK  109  A    between atoms: _269  and  _270
REMARK  110  A    between atoms: _269  and  _272
REMARK  111  A    between atoms: _272  and  _273
REMARK  112  A    between atoms: _273  and  _274
REMARK  113  A    between atoms: _279  and  _281
REMARK  114  A    between atoms: _281  and  _282
REMARK  115  A    between atoms: _281  and  _284
REMARK  116  A    between atoms: _284  and  _285
REMARK  117  A    between atoms: _288  and  _290
REMARK  118  A    between atoms: _290  and  _291
REMARK  119  A    between atoms: _290  and  _293
REMARK  120  A    between atoms: _293  and  _294
REMARK  121  A    between atoms: _300  and  _302
REMARK  122  A    between atoms: _302  and  _303
REMARK  123  A    between atoms: _302  and  _305
REMARK  124  A    between atoms: _305  and  _306
REMARK  125  A    between atoms: _309  and  _311
REMARK  126  A    between atoms: _311  and  _312
REMARK  127  A    between atoms: _311  and  _314
REMARK  128  A    between atoms: _317  and  _319
REMARK  129  A    between atoms: _319  and  _320
REMARK  130  A    between atoms: _319  and  _322
REMARK  131  A    between atoms: _322  and  _323
REMARK  132  A    between atoms: _328  and  _330
REMARK  133  A    between atoms: _341  and  _344
REMARK  134  A    between atoms: _344  and  _345
REMARK  135  A    between atoms: _345  and  _346
REMARK  136  A    between atoms: _351  and  _354
REMARK  137  A    between atoms: _354  and  _355
REMARK  138  A    between atoms: _365  and  _366
REMARK  139  A    between atoms: _374  and  _376
REMARK  140  A    between atoms: _376  and  _377
REMARK  141  A    between atoms: _376  and  _379
REMARK  142  A    between atoms: _379  and  _380
REMARK  143  A    between atoms: _383  and  _385
REMARK  144  A    between atoms: _385  and  _386
REMARK  145  A    between atoms: _385  and  _388
REMARK  146  A    between atoms: _388  and  _389
REMARK  147  A    between atoms: _394  and  _395
REMARK  148  A    between atoms: _397  and  _399
REMARK  149  A    between atoms: _399  and  _400
REMARK  150  A    between atoms: _399  and  _402
REMARK  151  A    between atoms: _402  and  _403
REMARK  152  A    between atoms: _409  and  _411
REMARK  153  A    between atoms: _411  and  _412
REMARK  154  A    between atoms: _411  and  _414
REMARK  155  A    between atoms: _414  and  _415
REMARK  156  A    between atoms: _420  and  _421
REMARK  157  A    between atoms: _423  and  _425
REMARK  158  A    between atoms: _425  and  _426
REMARK  159  A    between atoms: _425  and  _428
REMARK  160  A    between atoms: _428  and  _429
REMARK  161  A    between atoms: _429  and  _430
REMARK  162  A    between atoms: _430  and  _431
REMARK  163  A    between atoms: _440  and  _442
REMARK  164  A    between atoms: _442  and  _443
REMARK  165  A    between atoms: _442  and  _445
REMARK  166  A    between atoms: _445  and  _446
REMARK  167  A    between atoms: _449  and  _451
REMARK  168  A    between atoms: _451  and  _452
REMARK  169  A    between atoms: _454  and  _456
REMARK  170  A    between atoms: _456  and  _457
REMARK  171  A    between atoms: _456  and  _459
REMARK  172  A    between atoms: _459  and  _460
REMARK  173  A    between atoms: _466  and  _467
REMARK  174  A    between atoms: _472  and  _474
REMARK  175  A    between atoms: _474  and  _475
REMARK  176  A    between atoms: _477  and  _479
REMARK  177  A    between atoms: _479  and  _480
REMARK  178  A    between atoms: _479  and  _482
REMARK  179  A    between atoms: _482  and  _483
REMARK  180  A    between atoms: _489  and  _491
REMARK  181  A    between atoms: _491  and  _492
REMARK  182  A    between atoms: _491  and  _494
REMARK  183  A    between atoms: _494  and  _495
REMARK  184  A    between atoms: _500  and  _502
REMARK  185  A    between atoms: _502  and  _503
REMARK  186  A    between atoms: _502  and  _505
REMARK  187  A    between atoms: _505  and  _506
REMARK  188  A    between atoms: _506  and  _507
REMARK  189  A    between atoms: _507  and  _508
REMARK  190  A    between atoms: _508  and  ZN_790
REMARK  191  A    between atoms: _510  and  _512
REMARK  192  A    between atoms: _512  and  _513
REMARK  193  A    between atoms: _516  and  _518
REMARK  194  A    between atoms: _518  and  _519
REMARK  195  A    between atoms: _521  and  _523
REMARK  196  A    between atoms: _523  and  _524
REMARK  197  A    between atoms: _523  and  _526
REMARK  198  A    between atoms: _526  and  _527
REMARK  199  A    between atoms: _530  and  _532
REMARK  200  A    between atoms: _532  and  _533
REMARK  201  A    between atoms: _532  and  _535
REMARK  202  A    between atoms: _538  and  _540
REMARK  203  A    between atoms: _540  and  _541
REMARK  204  A    between atoms: _540  and  _543
REMARK  205  A    between atoms: _543  and  _544
REMARK  206  A    between atoms: _546  and  _548
REMARK  207  A    between atoms: _548  and  _549
REMARK  208  A    between atoms: _548  and  _551
REMARK  209  A    between atoms: _551  and  _552
REMARK  210  A    between atoms: _555  and  _557
REMARK  211  A    between atoms: _557  and  _558
REMARK  212  A    between atoms: _557  and  _560
REMARK  213  A    between atoms: _560  and  _561
REMARK  214  A    between atoms: _563  and  _565
REMARK  215  A    between atoms: _565  and  _566
REMARK  216  A    between atoms: _565  and  _568
REMARK  217  A    between atoms: _568  and  _569
REMARK  218  A    between atoms: _572  and  _574
REMARK  219  A    between atoms: _574  and  _575
REMARK  220  A    between atoms: _574  and  _577
REMARK  221  A    between atoms: _577  and  _578
REMARK  222  A    between atoms: _578  and  _579
REMARK  223  A    between atoms: _579  and  _580
REMARK  224  A    between atoms: _580  and  _581
REMARK  225  A    between atoms: _585  and  _587
REMARK  226  A    between atoms: _587  and  _588
REMARK  227  A    between atoms: _587  and  _590
REMARK  228  A    between atoms: _590  and  _591
REMARK  229  A    between atoms: _597  and  _599
REMARK  230  A    between atoms: _599  and  _600
REMARK  231  A    between atoms: _599  and  _602
REMARK  232  A    between atoms: _602  and  _603
REMARK  233  A    between atoms: _609  and  _611
REMARK  234  A    between atoms: _611  and  _612
REMARK  235  A    between atoms: _615  and  _617
REMARK  236  A    between atoms: _617  and  _618
REMARK  237  A    between atoms: _617  and  _620
REMARK  238  A    between atoms: _620  and  _621
REMARK  239  A    between atoms: _621  and  _622
REMARK  240  A    between atoms: _624  and  _626
REMARK  241  A    between atoms: _626  and  _627
REMARK  242  A    between atoms: _626  and  _629
REMARK  243  A    between atoms: _629  and  _630
REMARK  244  A    between atoms: _630  and  _631
REMARK  245  A    between atoms: _631  and  _632
REMARK  246  A    between atoms: _632  and  _633
REMARK  247  A    between atoms: _637  and  _639
REMARK  248  A    between atoms: _639  and  _640
REMARK  249  A    between atoms: _639  and  _642
REMARK  250  A    between atoms: _642  and  _643
REMARK  251  A    between atoms: _648  and  _649
REMARK  252  A    between atoms: _651  and  _653
REMARK  253  A    between atoms: _653  and  _654
REMARK  254  A    between atoms: _653  and  _656
REMARK  255  A    between atoms: _656  and  _657
REMARK  256  A    between atoms: _662  and  _664
REMARK  257  A    between atoms: _664  and  _665
REMARK  258  A    between atoms: _664  and  _667
REMARK  259  A    between atoms: _667  and  _668
REMARK  260  A    between atoms: _671  and  _673
REMARK  261  A    between atoms: _673  and  _674
REMARK  262  A    between atoms: _677  and  _679
REMARK  263  A    between atoms: _679  and  _680
REMARK  264  A    between atoms: _679  and  _682
REMARK  265  A    between atoms: _682  and  _683
REMARK  266  A    between atoms: _686  and  _688
REMARK  267  A    between atoms: _688  and  _689
REMARK  268  A    between atoms: _688  and  _691
REMARK  269  A    between atoms: _694  and  _696
REMARK  270  A    between atoms: _696  and  _697
REMARK  271  A    between atoms: _696  and  _699
REMARK  272  A    between atoms: _699  and  _700
REMARK  273  A    between atoms: _700  and  _701
REMARK  274  A    between atoms: _704  and  _706
REMARK  275  A    between atoms: _706  and  _707
REMARK  276  A    between atoms: _706  and  _709
REMARK  277  A    between atoms: _709  and  _710
REMARK  278  A    between atoms: _715  and  _716
REMARK  279  A    between atoms: _718  and  _720
REMARK  280  A    between atoms: _720  and  _721
REMARK  281  A    between atoms: _720  and  _723
REMARK  282  A    between atoms: _723  and  _724
REMARK  283  A    between atoms: _724  and  _725
REMARK  284  A    between atoms: _725  and  _726
REMARK  285  A    between atoms: _735  and  _737
REMARK  286  A    between atoms: _737  and  _738
REMARK  287  A    between atoms: _737  and  _740
REMARK  288  A    between atoms: _740  and  _741
REMARK  289  A    between atoms: _746  and  _747
REMARK  290  A    between atoms: _749  and  _751
REMARK  291  A    between atoms: _751  and  _752
REMARK  292  A    between atoms: _751  and  _754
REMARK  293  A    between atoms: _754  and  _755
REMARK  294  A    between atoms: _758  and  _760
REMARK  295  A    between atoms: _760  and  _761
REMARK  296  A    between atoms: _760  and  _763
REMARK  297  A    between atoms: _763  and  _764
REMARK  298  A    between atoms: _766  and  _768
REMARK  299  A    between atoms: _768  and  _769
REMARK  300  A    between atoms: _768  and  _771
REMARK  301  A    between atoms: _771  and  _772
REMARK  302  A    between atoms: _778  and  _780
REMARK  303  A    between atoms: _780  and  _781
REMARK  304  A    between atoms: _780  and  _783
REMARK  305  A    between atoms: _783  and  _784
REMARK  306  A    between atoms: _784  and  _785
REMARK                            x       y       z     vdW  Elec       q    Type
REMARK                         _______ _______ _______ _____ _____    ______ ____
ROOT
ATOM      1  O   HOH     1      33.477   7.393  13.632  0.00  0.00    +0.000 OA
ENDROOT
TORSDOF 0
REMARK  Name = ../refined-set-2016/4ca7/4ca7_pocket.pdb
REMARK  306 active torsions:
REMARK  status: ('A' for Active; 'I' for Inactive)
REMARK    1  A    between atoms: _1  and  _3
REMARK    2  A    between atoms: _3  and  _4
REMARK    3  A    between atoms: _3  and  _6
REMARK    4  A    between atoms: _6  and  _7
REMARK    5  A    between atoms: _7  and  _8
REMARK    6  A    between atoms: _8  and  _9
REMARK    7  A    between atoms: _9  and  _10
REMARK    8  A    between atoms: _14  and  _16
REMARK    9  A    between atoms: _16  and  _17
REMARK   10  A    between atoms: _16  and  _19
REMARK   11  A    between atoms: _19  and  _20
REMARK   12  A    between atoms: _20  and  _21
REMARK   13  A    between atoms: _24  and  _26
REMARK   14  A    between atoms: _26  and  _27
REMARK   15  A    between atoms: _26  and  _29
REMARK   16  A    between atoms: _29  and  _30
REMARK   17  A    between atoms: _30  and  _31
REMARK   18  A    between atoms: _34  and  _36
REMARK   19  A    between atoms: _36  and  _37
REMARK   20  A    between atoms: _36  and  _39
REMARK   21  A    between atoms: _39  and  _40
REMARK   22  A    between atoms: _45  and  _47
REMARK   23  A    between atoms: _47  and  _48
REMARK   24  A    between atoms: _47  and  _50
REMARK   25  A    between atoms: _50  and  _51
REMARK   26  A    between atoms: _61  and  _63
REMARK   27  A    between atoms: _63  and  _64
REMARK   28  A    between atoms: _63  and  _66
REMARK   29  A    between atoms: _66  and  _67
REMARK   30  A    between atoms: _67  and  _68
REMARK   31  A    between atoms: _73  and  _75
REMARK   32  A    between atoms: _75  and  _76
REMARK   33  A    between atoms: _75  and  _78
REMARK   34  A    between atoms: _78  and  _79
REMARK   35  A    between atoms: _79  and  _80
REMARK   36  A    between atoms: _85  and  _87
REMARK   37  A    between atoms: _87  and  _88
REMARK   38  A    between atoms: _87  and  _90
REMARK   39  A    between atoms: _90  and  _91
REMARK   40  A    between atoms: _93  and  _95
REMARK   41  A    between atoms: _95  and  _96
REMARK   42  A    between atoms: _95  and  _98
REMARK   43  A    between atoms: _101  and  _103
REMARK   44  A    between atoms: _103  and  _104
REMARK   45  A    between atoms: _103  and  _106
REMARK   46  A    between atoms: _108  and  _110
REMARK   47  A    between atoms: _110  and  _111
REMARK   48  A    between atoms: _110  and  _113
REMARK   49  A    between atoms: _113  and  _114
REMARK   50  A    between atoms: _119  and  _121
REMARK   51  A    between atoms: _121  and  _122
REMARK   52  A    between atoms: _125  and  _127
REMARK   53  A    between atoms: _127  and  _128
REMARK   54  A    between atoms: _127  and  _130
REMARK   55  A    between atoms: _130  and  _131
REMARK   56  A    between atoms: _133  and  _135
REMARK   57  A    between atoms: _135  and  _136
REMARK   58  A    between atoms: _139  and  _141
REMARK   59  A    between atoms: _141  and  _142
REMARK   60  A    between atoms: _141  and  _144
REMARK   61  A    between atoms: _144  and  _145
REMARK   62  A    between atoms: _155  and  _157
REMARK   63  A    between atoms: _157  and  _158
REMARK   64  A    between atoms: _157  and  _160
REMARK   65  A    between atoms: _160  and  _161
REMARK   66  A    between atoms: _164  and  _166
REMARK   67  A    between atoms: _166  and  _167
REMARK   68  A    between atoms: _166  and  _169
REMARK   69  A    between atoms: _169  and  _170
REMARK   70  A    between atoms: _175  and  _176
REMARK   71  A    between atoms: _178  and  _180
REMARK   72  A    between atoms: _180  and  _181
REMARK   73  A    between atoms: _180  and  _183
REMARK   74  A    between atoms: _183  and  _184
REMARK   75  A    between atoms: _184  and  _185
REMARK   76  A    between atoms: _185  and  _186
REMARK   77  A    between atoms: _195  and  _197
REMARK   78  A    between atoms: _197  and  _198
REMARK   79  A    between atoms: _197  and  _200
REMARK   80  A    between atoms: _200  and  _201
REMARK   81  A    between atoms: _204  and  _206
REMARK   82  A    between atoms: _206  and  _207
REMARK   83  A    between atoms: _206  and  _209
REMARK   84  A    between atoms: _209  and  _210
REMARK   85  A    between atoms: _210  and  _211
REMARK   86  A    between atoms: _211  and  _212
REMARK   87  A    between atoms: _212  and  _213
REMARK   88  A    between atoms: _217  and  _219
REMARK   89  A    between atoms: _219  and  _220
REMARK   90  A    between atoms: _219  and  _222
REMARK   91  A    between atoms: _222  and  _223
REMARK   92  A    between atoms: _223  and  _224
REMARK   93  A    between atoms: _229  and  _231
REMARK   94  A    between atoms: _231  and  _232
REMARK   95  A    between atoms: _231  and  _234
REMARK   96  A    between atoms: _234  and  _235
REMARK   97  A    between atoms: _235  and  _236
REMARK   98  A    between atoms: _236  and  _237
REMARK   99  A    between atoms: _246  and  _248
REMARK  100  A    between atoms: _248  and  _249
REMARK  101  A    between atoms: _248  and  _251
REMARK  102  A    between atoms: _251  and  _252
REMARK  103  A    between atoms: _252  and  _253
REMARK  104  A    between atoms: _258  and  _260
REMARK  105  A    between atoms: _260  and  _261
REMARK  106  A    between atoms: _260  and  _263
REMARK  107  A    between atoms: _263  and  _264
REMARK  108  A    between atoms: _267  and  _269
REMARK  109  A    between atoms: _269  and  _270
REMARK  110  A    between atoms: _269  and  _272
REMARK  111  A    between atoms: _272  and  _273
REMARK  112  A    between atoms: _273  and  _274
REMARK  113  A    between atoms: _279  and  _281
REMARK  114  A    between atoms: _281  and  _282
REMARK  115  A    between atoms: _281  and  _284
REMARK  116  A    between atoms: _284  and  _285
REMARK  117  A    between atoms: _288  and  _290
REMARK  118  A    between atoms: _290  and  _291
REMARK  119  A    between atoms: _290  and  _293
REMARK  120  A    between atoms: _293  and  _294
REMARK  121  A    between atoms: _300  and  _302
REMARK  122  A    between atoms: _302  and  _303
REMARK  123  A    between atoms: _302  and  _305
REMARK  124  A    between atoms: _305  and  _306
REMARK  125  A    between atoms: _309  and  _311
REMARK  126  A    between atoms: _311  and  _312
REMARK  127  A    between atoms: _311  and  _314
REMARK  128  A    between atoms: _317  and  _319
REMARK  129  A    between atoms: _319  and  _320
REMARK  130  A    between atoms: _319  and  _322
REMARK  131  A    between atoms: _322  and  _323
REMARK  132  A    between atoms: _328  and  _330
REMARK  133  A    between atoms: _341  and  _344
REMARK  134  A    between atoms: _344  and  _345
REMARK  135  A    between atoms: _345  and  _346
REMARK  136  A    between atoms: _351  and  _354
REMARK  137  A    between atoms: _354  and  _355
REMARK  138  A    between atoms: _365  and  _366
REMARK  139  A    between atoms: _374  and  _376
REMARK  140  A    between atoms: _376  and  _377
REMARK  141  A    between atoms: _376  and  _379
REMARK  142  A    between atoms: _379  and  _380
REMARK  143  A    between atoms: _383  and  _385
REMARK  144  A    between atoms: _385  and  _386
REMARK  145  A    between atoms: _385  and  _388
REMARK  146  A    between atoms: _388  and  _389
REMARK  147  A    between atoms: _394  and  _395
REMARK  148  A    between atoms: _397  and  _399
REMARK  149  A    between atoms: _399  and  _400
REMARK  150  A    between atoms: _399  and  _402
REMARK  151  A    between atoms: _402  and  _403
REMARK  152  A    between atoms: _409  and  _411
REMARK  153  A    between atoms: _411  and  _412
REMARK  154  A    between atoms: _411  and  _414
REMARK  155  A    between atoms: _414  and  _415
REMARK  156  A    between atoms: _420  and  _421
REMARK  157  A    between atoms: _423  and  _425
REMARK  158  A    between atoms: _425  and  _426
REMARK  159  A    between atoms: _425  and  _428
REMARK  160  A    between atoms: _428  and  _429
REMARK  161  A    between atoms: _429  and  _430
REMARK  162  A    between atoms: _430  and  _431
REMARK  163  A    between atoms: _440  and  _442
REMARK  164  A    between atoms: _442  and  _443
REMARK  165  A    between atoms: _442  and  _445
REMARK  166  A    between atoms: _445  and  _446
REMARK  167  A    between atoms: _449  and  _451
REMARK  168  A    between atoms: _451  and  _452
REMARK  169  A    between atoms: _454  and  _456
REMARK  170  A    between atoms: _456  and  _457
REMARK  171  A    between atoms: _456  and  _459
REMARK  172  A    between atoms: _459  and  _460
REMARK  173  A    between atoms: _466  and  _467
REMARK  174  A    between atoms: _472  and  _474
REMARK  175  A    between atoms: _474  and  _475
REMARK  176  A    between atoms: _477  and  _479
REMARK  177  A    between atoms: _479  and  _480
REMARK  178  A    between atoms: _479  and  _482
REMARK  179  A    between atoms: _482  and  _483
REMARK  180  A    between atoms: _489  and  _491
REMARK  181  A    between atoms: _491  and  _492
REMARK  182  A    between atoms: _491  and  _494
REMARK  183  A    between atoms: _494  and  _495
REMARK  184  A    between atoms: _500  and  _502
REMARK  185  A    between atoms: _502  and  _503
REMARK  186  A    between atoms: _502  and  _505
REMARK  187  A    between atoms: _505  and  _506
REMARK  188  A    between atoms: _506  and  _507
REMARK  189  A    between atoms: _507  and  _508
REMARK  190  A    between atoms: _508  and  ZN_790
REMARK  191  A    between atoms: _510  and  _512
REMARK  192  A    between atoms: _512  and  _513
REMARK  193  A    between atoms: _516  and  _518
REMARK  194  A    between atoms: _518  and  _519
REMARK  195  A    between atoms: _521  and  _523
REMARK  196  A    between atoms: _523  and  _524
REMARK  197  A    between atoms: _523  and  _526
REMARK  198  A    between atoms: _526  and  _527
REMARK  199  A    between atoms: _530  and  _532
REMARK  200  A    between atoms: _532  and  _533
REMARK  201  A    between atoms: _532  and  _535
REMARK  202  A    between atoms: _538  and  _540
REMARK  203  A    between atoms: _540  and  _541
REMARK  204  A    between atoms: _540  and  _543
REMARK  205  A    between atoms: _543  and  _544
REMARK  206  A    between atoms: _546  and  _548
REMARK  207  A    between atoms: _548  and  _549
REMARK  208  A    between atoms: _548  and  _551
REMARK  209  A    between atoms: _551  and  _552
REMARK  210  A    between atoms: _555  and  _557
REMARK  211  A    between atoms: _557  and  _558
REMARK  212  A    between atoms: _557  and  _560
REMARK  213  A    between atoms: _560  and  _561
REMARK  214  A    between atoms: _563  and  _565
REMARK  215  A    between atoms: _565  and  _566
REMARK  216  A    between atoms: _565  and  _568
REMARK  217  A    between atoms: _568  and  _569
REMARK  218  A    between atoms: _572  and  _574
REMARK  219  A    between atoms: _574  and  _575
REMARK  220  A    between atoms: _574  and  _577
REMARK  221  A    between atoms: _577  and  _578
REMARK  222  A    between atoms: _578  and  _579
REMARK  223  A    between atoms: _579  and  _580
REMARK  224  A    between atoms: _580  and  _581
REMARK  225  A    between atoms: _585  and  _587
REMARK  226  A    between atoms: _587  and  _588
REMARK  227  A    between atoms: _587  and  _590
REMARK  228  A    between atoms: _590  and  _591
REMARK  229  A    between atoms: _597  and  _599
REMARK  230  A    between atoms: _599  and  _600
REMARK  231  A    between atoms: _599  and  _602
REMARK  232  A    between atoms: _602  and  _603
REMARK  233  A    between atoms: _609  and  _611
REMARK  234  A    between atoms: _611  and  _612
REMARK  235  A    between atoms: _615  and  _617
REMARK  236  A    between atoms: _617  and  _618
REMARK  237  A    between atoms: _617  and  _620
REMARK  238  A    between atoms: _620  and  _621
REMARK  239  A    between atoms: _621  and  _622
REMARK  240  A    between atoms: _624  and  _626
REMARK  241  A    between atoms: _626  and  _627
REMARK  242  A    between atoms: _626  and  _629
REMARK  243  A    between atoms: _629  and  _630
REMARK  244  A    between atoms: _630  and  _631
REMARK  245  A    between atoms: _631  and  _632
REMARK  246  A    between atoms: _632  and  _633
REMARK  247  A    between atoms: _637  and  _639
REMARK  248  A    between atoms: _639  and  _640
REMARK  249  A    between atoms: _639  and  _642
REMARK  250  A    between atoms: _642  and  _643
REMARK  251  A    between atoms: _648  and  _649
REMARK  252  A    between atoms: _651  and  _653
REMARK  253  A    between atoms: _653  and  _654
REMARK  254  A    between atoms: _653  and  _656
REMARK  255  A    between atoms: _656  and  _657
REMARK  256  A    between atoms: _662  and  _664
REMARK  257  A    between atoms: _664  and  _665
REMARK  258  A    between atoms: _664  and  _667
REMARK  259  A    between atoms: _667  and  _668
REMARK  260  A    between atoms: _671  and  _673
REMARK  261  A    between atoms: _673  and  _674
REMARK  262  A    between atoms: _677  and  _679
REMARK  263  A    between atoms: _679  and  _680
REMARK  264  A    between atoms: _679  and  _682
REMARK  265  A    between atoms: _682  and  _683
REMARK  266  A    between atoms: _686  and  _688
REMARK  267  A    between atoms: _688  and  _689
REMARK  268  A    between atoms: _688  and  _691
REMARK  269  A    between atoms: _694  and  _696
REMARK  270  A    between atoms: _696  and  _697
REMARK  271  A    between atoms: _696  and  _699
REMARK  272  A    between atoms: _699  and  _700
REMARK  273  A    between atoms: _700  and  _701
REMARK  274  A    between atoms: _704  and  _706
REMARK  275  A    between atoms: _706  and  _707
REMARK  276  A    between atoms: _706  and  _709
REMARK  277  A    between atoms: _709  and  _710
REMARK  278  A    between atoms: _715  and  _716
REMARK  279  A    between atoms: _718  and  _720
REMARK  280  A    between atoms: _720  and  _721
REMARK  281  A    between atoms: _720  and  _723
REMARK  282  A    between atoms: _723  and  _724
REMARK  283  A    between atoms: _724  and  _725
REMARK  284  A    between atoms: _725  and  _726
REMARK  285  A    between atoms: _735  and  _737
REMARK  286  A    between atoms: _737  and  _738
REMARK  287  A    between atoms: _737  and  _740
REMARK  288  A    between atoms: _740  and  _741
REMARK  289  A    between atoms: _746  and  _747
REMARK  290  A    between atoms: _749  and  _751
REMARK  291  A    between atoms: _751  and  _752
REMARK  292  A    between atoms: _751  and  _754
REMARK  293  A    between atoms: _754  and  _755
REMARK  294  A    between atoms: _758  and  _760
REMARK  295  A    between atoms: _760  and  _761
REMARK  296  A    between atoms: _760  and  _763
REMARK  297  A    between atoms: _763  and  _764
REMARK  298  A    between atoms: _766  and  _768
REMARK  299  A    between atoms: _768  and  _769
REMARK  300  A    between atoms: _768  and  _771
REMARK  301  A    between atoms: _771  and  _772
REMARK  302  A    between atoms: _778  and  _780
REMARK  303  A    between atoms: _780  and  _781
REMARK  304  A    between atoms: _780  and  _783
REMARK  305  A    between atoms: _783  and  _784
REMARK  306  A    between atoms: _784  and  _785
REMARK                            x       y       z     vdW  Elec       q    Type
REMARK                         _______ _______ _______ _____ _____    ______ ____
ROOT
ATOM      1  O   HOH     1      31.003   7.909  12.285  0.00  0.00    +0.000 OA
ENDROOT
TORSDOF 0
REMARK  Name = ../refined-set-2016/4ca7/4ca7_pocket.pdb
REMARK  306 active torsions:
REMARK  status: ('A' for Active; 'I' for Inactive)
REMARK    1  A    between atoms: _1  and  _3
REMARK    2  A    between atoms: _3  and  _4
REMARK    3  A    between atoms: _3  and  _6
REMARK    4  A    between atoms: _6  and  _7
REMARK    5  A    between atoms: _7  and  _8
REMARK    6  A    between atoms: _8  and  _9
REMARK    7  A    between atoms: _9  and  _10
REMARK    8  A    between atoms: _14  and  _16
REMARK    9  A    between atoms: _16  and  _17
REMARK   10  A    between atoms: _16  and  _19
REMARK   11  A    between atoms: _19  and  _20
REMARK   12  A    between atoms: _20  and  _21
REMARK   13  A    between atoms: _24  and  _26
REMARK   14  A    between atoms: _26  and  _27
REMARK   15  A    between atoms: _26  and  _29
REMARK   16  A    between atoms: _29  and  _30
REMARK   17  A    between atoms: _30  and  _31
REMARK   18  A    between atoms: _34  and  _36
REMARK   19  A    between atoms: _36  and  _37
REMARK   20  A    between atoms: _36  and  _39
REMARK   21  A    between atoms: _39  and  _40
REMARK   22  A    between atoms: _45  and  _47
REMARK   23  A    between atoms: _47  and  _48
REMARK   24  A    between atoms: _47  and  _50
REMARK   25  A    between atoms: _50  and  _51
REMARK   26  A    between atoms: _61  and  _63
REMARK   27  A    between atoms: _63  and  _64
REMARK   28  A    between atoms: _63  and  _66
REMARK   29  A    between atoms: _66  and  _67
REMARK   30  A    between atoms: _67  and  _68
REMARK   31  A    between atoms: _73  and  _75
REMARK   32  A    between atoms: _75  and  _76
REMARK   33  A    between atoms: _75  and  _78
REMARK   34  A    between atoms: _78  and  _79
REMARK   35  A    between atoms: _79  and  _80
REMARK   36  A    between atoms: _85  and  _87
REMARK   37  A    between atoms: _87  and  _88
REMARK   38  A    between atoms: _87  and  _90
REMARK   39  A    between atoms: _90  and  _91
REMARK   40  A    between atoms: _93  and  _95
REMARK   41  A    between atoms: _95  and  _96
REMARK   42  A    between atoms: _95  and  _98
REMARK   43  A    between atoms: _101  and  _103
REMARK   44  A    between atoms: _103  and  _104
REMARK   45  A    between atoms: _103  and  _106
REMARK   46  A    between atoms: _108  and  _110
REMARK   47  A    between atoms: _110  and  _111
REMARK   48  A    between atoms: _110  and  _113
REMARK   49  A    between atoms: _113  and  _114
REMARK   50  A    between atoms: _119  and  _121
REMARK   51  A    between atoms: _121  and  _122
REMARK   52  A    between atoms: _125  and  _127
REMARK   53  A    between atoms: _127  and  _128
REMARK   54  A    between atoms: _127  and  _130
REMARK   55  A    between atoms: _130  and  _131
REMARK   56  A    between atoms: _133  and  _135
REMARK   57  A    between atoms: _135  and  _136
REMARK   58  A    between atoms: _139  and  _141
REMARK   59  A    between atoms: _141  and  _142
REMARK   60  A    between atoms: _141  and  _144
REMARK   61  A    between atoms: _144  and  _145
REMARK   62  A    between atoms: _155  and  _157
REMARK   63  A    between atoms: _157  and  _158
REMARK   64  A    between atoms: _157  and  _160
REMARK   65  A    between atoms: _160  and  _161
REMARK   66  A    between atoms: _164  and  _166
REMARK   67  A    between atoms: _166  and  _167
REMARK   68  A    between atoms: _166  and  _169
REMARK   69  A    between atoms: _169  and  _170
REMARK   70  A    between atoms: _175  and  _176
REMARK   71  A    between atoms: _178  and  _180
REMARK   72  A    between atoms: _180  and  _181
REMARK   73  A    between atoms: _180  and  _183
REMARK   74  A    between atoms: _183  and  _184
REMARK   75  A    between atoms: _184  and  _185
REMARK   76  A    between atoms: _185  and  _186
REMARK   77  A    between atoms: _195  and  _197
REMARK   78  A    between atoms: _197  and  _198
REMARK   79  A    between atoms: _197  and  _200
REMARK   80  A    between atoms: _200  and  _201
REMARK   81  A    between atoms: _204  and  _206
REMARK   82  A    between atoms: _206  and  _207
REMARK   83  A    between atoms: _206  and  _209
REMARK   84  A    between atoms: _209  and  _210
REMARK   85  A    between atoms: _210  and  _211
REMARK   86  A    between atoms: _211  and  _212
REMARK   87  A    between atoms: _212  and  _213
REMARK   88  A    between atoms: _217  and  _219
REMARK   89  A    between atoms: _219  and  _220
REMARK   90  A    between atoms: _219  and  _222
REMARK   91  A    between atoms: _222  and  _223
REMARK   92  A    between atoms: _223  and  _224
REMARK   93  A    between atoms: _229  and  _231
REMARK   94  A    between atoms: _231  and  _232
REMARK   95  A    between atoms: _231  and  _234
REMARK   96  A    between atoms: _234  and  _235
REMARK   97  A    between atoms: _235  and  _236
REMARK   98  A    between atoms: _236  and  _237
REMARK   99  A    between atoms: _246  and  _248
REMARK  100  A    between atoms: _248  and  _249
REMARK  101  A    between atoms: _248  and  _251
REMARK  102  A    between atoms: _251  and  _252
REMARK  103  A    between atoms: _252  and  _253
REMARK  104  A    between atoms: _258  and  _260
REMARK  105  A    between atoms: _260  and  _261
REMARK  106  A    between atoms: _260  and  _263
REMARK  107  A    between atoms: _263  and  _264
REMARK  108  A    between atoms: _267  and  _269
REMARK  109  A    between atoms: _269  and  _270
REMARK  110  A    between atoms: _269  and  _272
REMARK  111  A    between atoms: _272  and  _273
REMARK  112  A    between atoms: _273  and  _274
REMARK  113  A    between atoms: _279  and  _281
REMARK  114  A    between atoms: _281  and  _282
REMARK  115  A    between atoms: _281  and  _284
REMARK  116  A    between atoms: _284  and  _285
REMARK  117  A    between atoms: _288  and  _290
REMARK  118  A    between atoms: _290  and  _291
REMARK  119  A    between atoms: _290  and  _293
REMARK  120  A    between atoms: _293  and  _294
REMARK  121  A    between atoms: _300  and  _302
REMARK  122  A    between atoms: _302  and  _303
REMARK  123  A    between atoms: _302  and  _305
REMARK  124  A    between atoms: _305  and  _306
REMARK  125  A    between atoms: _309  and  _311
REMARK  126  A    between atoms: _311  and  _312
REMARK  127  A    between atoms: _311  and  _314
REMARK  128  A    between atoms: _317  and  _319
REMARK  129  A    between atoms: _319  and  _320
REMARK  130  A    between atoms: _319  and  _322
REMARK  131  A    between atoms: _322  and  _323
REMARK  132  A    between atoms: _328  and  _330
REMARK  133  A    between atoms: _341  and  _344
REMARK  134  A    between atoms: _344  and  _345
REMARK  135  A    between atoms: _345  and  _346
REMARK  136  A    between atoms: _351  and  _354
REMARK  137  A    between atoms: _354  and  _355
REMARK  138  A    between atoms: _365  and  _366
REMARK  139  A    between atoms: _374  and  _376
REMARK  140  A    between atoms: _376  and  _377
REMARK  141  A    between atoms: _376  and  _379
REMARK  142  A    between atoms: _379  and  _380
REMARK  143  A    between atoms: _383  and  _385
REMARK  144  A    between atoms: _385  and  _386
REMARK  145  A    between atoms: _385  and  _388
REMARK  146  A    between atoms: _388  and  _389
REMARK  147  A    between atoms: _394  and  _395
REMARK  148  A    between atoms: _397  and  _399
REMARK  149  A    between atoms: _399  and  _400
REMARK  150  A    between atoms: _399  and  _402
REMARK  151  A    between atoms: _402  and  _403
REMARK  152  A    between atoms: _409  and  _411
REMARK  153  A    between atoms: _411  and  _412
REMARK  154  A    between atoms: _411  and  _414
REMARK  155  A    between atoms: _414  and  _415
REMARK  156  A    between atoms: _420  and  _421
REMARK  157  A    between atoms: _423  and  _425
REMARK  158  A    between atoms: _425  and  _426
REMARK  159  A    between atoms: _425  and  _428
REMARK  160  A    between atoms: _428  and  _429
REMARK  161  A    between atoms: _429  and  _430
REMARK  162  A    between atoms: _430  and  _431
REMARK  163  A    between atoms: _440  and  _442
REMARK  164  A    between atoms: _442  and  _443
REMARK  165  A    between atoms: _442  and  _445
REMARK  166  A    between atoms: _445  and  _446
REMARK  167  A    between atoms: _449  and  _451
REMARK  168  A    between atoms: _451  and  _452
REMARK  169  A    between atoms: _454  and  _456
REMARK  170  A    between atoms: _456  and  _457
REMARK  171  A    between atoms: _456  and  _459
REMARK  172  A    between atoms: _459  and  _460
REMARK  173  A    between atoms: _466  and  _467
REMARK  174  A    between atoms: _472  and  _474
REMARK  175  A    between atoms: _474  and  _475
REMARK  176  A    between atoms: _477  and  _479
REMARK  177  A    between atoms: _479  and  _480
REMARK  178  A    between atoms: _479  and  _482
REMARK  179  A    between atoms: _482  and  _483
REMARK  180  A    between atoms: _489  and  _491
REMARK  181  A    between atoms: _491  and  _492
REMARK  182  A    between atoms: _491  and  _494
REMARK  183  A    between atoms: _494  and  _495
REMARK  184  A    between atoms: _500  and  _502
REMARK  185  A    between atoms: _502  and  _503
REMARK  186  A    between atoms: _502  and  _505
REMARK  187  A    between atoms: _505  and  _506
REMARK  188  A    between atoms: _506  and  _507
REMARK  189  A    between atoms: _507  and  _508
REMARK  190  A    between atoms: _508  and  ZN_790
REMARK  191  A    between atoms: _510  and  _512
REMARK  192  A    between atoms: _512  and  _513
REMARK  193  A    between atoms: _516  and  _518
REMARK  194  A    between atoms: _518  and  _519
REMARK  195  A    between atoms: _521  and  _523
REMARK  196  A    between atoms: _523  and  _524
REMARK  197  A    between atoms: _523  and  _526
REMARK  198  A    between atoms: _526  and  _527
REMARK  199  A    between atoms: _530  and  _532
REMARK  200  A    between atoms: _532  and  _533
REMARK  201  A    between atoms: _532  and  _535
REMARK  202  A    between atoms: _538  and  _540
REMARK  203  A    between atoms: _540  and  _541
REMARK  204  A    between atoms: _540  and  _543
REMARK  205  A    between atoms: _543  and  _544
REMARK  206  A    between atoms: _546  and  _548
REMARK  207  A    between atoms: _548  and  _549
REMARK  208  A    between atoms: _548  and  _551
REMARK  209  A    between atoms: _551  and  _552
REMARK  210  A    between atoms: _555  and  _557
REMARK  211  A    between atoms: _557  and  _558
REMARK  212  A    between atoms: _557  and  _560
REMARK  213  A    between atoms: _560  and  _561
REMARK  214  A    between atoms: _563  and  _565
REMARK  215  A    between atoms: _565  and  _566
REMARK  216  A    between atoms: _565  and  _568
REMARK  217  A    between atoms: _568  and  _569
REMARK  218  A    between atoms: _572  and  _574
REMARK  219  A    between atoms: _574  and  _575
REMARK  220  A    between atoms: _574  and  _577
REMARK  221  A    between atoms: _577  and  _578
REMARK  222  A    between atoms: _578  and  _579
REMARK  223  A    between atoms: _579  and  _580
REMARK  224  A    between atoms: _580  and  _581
REMARK  225  A    between atoms: _585  and  _587
REMARK  226  A    between atoms: _587  and  _588
REMARK  227  A    between atoms: _587  and  _590
REMARK  228  A    between atoms: _590  and  _591
REMARK  229  A    between atoms: _597  and  _599
REMARK  230  A    between atoms: _599  and  _600
REMARK  231  A    between atoms: _599  and  _602
REMARK  232  A    between atoms: _602  and  _603
REMARK  233  A    between atoms: _609  and  _611
REMARK  234  A    between atoms: _611  and  _612
REMARK  235  A    between atoms: _615  and  _617
REMARK  236  A    between atoms: _617  and  _618
REMARK  237  A    between atoms: _617  and  _620
REMARK  238  A    between atoms: _620  and  _621
REMARK  239  A    between atoms: _621  and  _622
REMARK  240  A    between atoms: _624  and  _626
REMARK  241  A    between atoms: _626  and  _627
REMARK  242  A    between atoms: _626  and  _629
REMARK  243  A    between atoms: _629  and  _630
REMARK  244  A    between atoms: _630  and  _631
REMARK  245  A    between atoms: _631  and  _632
REMARK  246  A    between atoms: _632  and  _633
REMARK  247  A    between atoms: _637  and  _639
REMARK  248  A    between atoms: _639  and  _640
REMARK  249  A    between atoms: _639  and  _642
REMARK  250  A    between atoms: _642  and  _643
REMARK  251  A    between atoms: _648  and  _649
REMARK  252  A    between atoms: _651  and  _653
REMARK  253  A    between atoms: _653  and  _654
REMARK  254  A    between atoms: _653  and  _656
REMARK  255  A    between atoms: _656  and  _657
REMARK  256  A    between atoms: _662  and  _664
REMARK  257  A    between atoms: _664  and  _665
REMARK  258  A    between atoms: _664  and  _667
REMARK  259  A    between atoms: _667  and  _668
REMARK  260  A    between atoms: _671  and  _673
REMARK  261  A    between atoms: _673  and  _674
REMARK  262  A    between atoms: _677  and  _679
REMARK  263  A    between atoms: _679  and  _680
REMARK  264  A    between atoms: _679  and  _682
REMARK  265  A    between atoms: _682  and  _683
REMARK  266  A    between atoms: _686  and  _688
REMARK  267  A    between atoms: _688  and  _689
REMARK  268  A    between atoms: _688  and  _691
REMARK  269  A    between atoms: _694  and  _696
REMARK  270  A    between atoms: _696  and  _697
REMARK  271  A    between atoms: _696  and  _699
REMARK  272  A    between atoms: _699  and  _700
REMARK  273  A    between atoms: _700  and  _701
REMARK  274  A    between atoms: _704  and  _706
REMARK  275  A    between atoms: _706  and  _707
REMARK  276  A    between atoms: _706  and  _709
REMARK  277  A    between atoms: _709  and  _710
REMARK  278  A    between atoms: _715  and  _716
REMARK  279  A    between atoms: _718  and  _720
REMARK  280  A    between atoms: _720  and  _721
REMARK  281  A    between atoms: _720  and  _723
REMARK  282  A    between atoms: _723  and  _724
REMARK  283  A    between atoms: _724  and  _725
REMARK  284  A    between atoms: _725  and  _726
REMARK  285  A    between atoms: _735  and  _737
REMARK  286  A    between atoms: _737  and  _738
REMARK  287  A    between atoms: _737  and  _740
REMARK  288  A    between atoms: _740  and  _741
REMARK  289  A    between atoms: _746  and  _747
REMARK  290  A    between atoms: _749  and  _751
REMARK  291  A    between atoms: _751  and  _752
REMARK  292  A    between atoms: _751  and  _754
REMARK  293  A    between atoms: _754  and  _755
REMARK  294  A    between atoms: _758  and  _760
REMARK  295  A    between atoms: _760  and  _761
REMARK  296  A    between atoms: _760  and  _763
REMARK  297  A    between atoms: _763  and  _764
REMARK  298  A    between atoms: _766  and  _768
REMARK  299  A    between atoms: _768  and  _769
REMARK  300  A    between atoms: _768  and  _771
REMARK  301  A    between atoms: _771  and  _772
REMARK  302  A    between atoms: _778  and  _780
REMARK  303  A    between atoms: _780  and  _781
REMARK  304  A    between atoms: _780  and  _783
REMARK  305  A    between atoms: _783  and  _784
REMARK  306  A    between atoms: _784  and  _785
REMARK                            x       y       z     vdW  Elec       q    Type
REMARK                         _______ _______ _______ _____ _____    ______ ____
ROOT
ATOM      1  O   HOH     1      32.243  11.338   9.613  0.00  0.00    +0.000 OA
ENDROOT
TORSDOF 0
REMARK  Name = ../refined-set-2016/4ca7/4ca7_pocket.pdb
REMARK  306 active torsions:
REMARK  status: ('A' for Active; 'I' for Inactive)
REMARK    1  A    between atoms: _1  and  _3
REMARK    2  A    between atoms: _3  and  _4
REMARK    3  A    between atoms: _3  and  _6
REMARK    4  A    between atoms: _6  and  _7
REMARK    5  A    between atoms: _7  and  _8
REMARK    6  A    between atoms: _8  and  _9
REMARK    7  A    between atoms: _9  and  _10
REMARK    8  A    between atoms: _14  and  _16
REMARK    9  A    between atoms: _16  and  _17
REMARK   10  A    between atoms: _16  and  _19
REMARK   11  A    between atoms: _19  and  _20
REMARK   12  A    between atoms: _20  and  _21
REMARK   13  A    between atoms: _24  and  _26
REMARK   14  A    between atoms: _26  and  _27
REMARK   15  A    between atoms: _26  and  _29
REMARK   16  A    between atoms: _29  and  _30
REMARK   17  A    between atoms: _30  and  _31
REMARK   18  A    between atoms: _34  and  _36
REMARK   19  A    between atoms: _36  and  _37
REMARK   20  A    between atoms: _36  and  _39
REMARK   21  A    between atoms: _39  and  _40
REMARK   22  A    between atoms: _45  and  _47
REMARK   23  A    between atoms: _47  and  _48
REMARK   24  A    between atoms: _47  and  _50
REMARK   25  A    between atoms: _50  and  _51
REMARK   26  A    between atoms: _61  and  _63
REMARK   27  A    between atoms: _63  and  _64
REMARK   28  A    between atoms: _63  and  _66
REMARK   29  A    between atoms: _66  and  _67
REMARK   30  A    between atoms: _67  and  _68
REMARK   31  A    between atoms: _73  and  _75
REMARK   32  A    between atoms: _75  and  _76
REMARK   33  A    between atoms: _75  and  _78
REMARK   34  A    between atoms: _78  and  _79
REMARK   35  A    between atoms: _79  and  _80
REMARK   36  A    between atoms: _85  and  _87
REMARK   37  A    between atoms: _87  and  _88
REMARK   38  A    between atoms: _87  and  _90
REMARK   39  A    between atoms: _90  and  _91
REMARK   40  A    between atoms: _93  and  _95
REMARK   41  A    between atoms: _95  and  _96
REMARK   42  A    between atoms: _95  and  _98
REMARK   43  A    between atoms: _101  and  _103
REMARK   44  A    between atoms: _103  and  _104
REMARK   45  A    between atoms: _103  and  _106
REMARK   46  A    between atoms: _108  and  _110
REMARK   47  A    between atoms: _110  and  _111
REMARK   48  A    between atoms: _110  and  _113
REMARK   49  A    between atoms: _113  and  _114
REMARK   50  A    between atoms: _119  and  _121
REMARK   51  A    between atoms: _121  and  _122
REMARK   52  A    between atoms: _125  and  _127
REMARK   53  A    between atoms: _127  and  _128
REMARK   54  A    between atoms: _127  and  _130
REMARK   55  A    between atoms: _130  and  _131
REMARK   56  A    between atoms: _133  and  _135
REMARK   57  A    between atoms: _135  and  _136
REMARK   58  A    between atoms: _139  and  _141
REMARK   59  A    between atoms: _141  and  _142
REMARK   60  A    between atoms: _141  and  _144
REMARK   61  A    between atoms: _144  and  _145
REMARK   62  A    between atoms: _155  and  _157
REMARK   63  A    between atoms: _157  and  _158
REMARK   64  A    between atoms: _157  and  _160
REMARK   65  A    between atoms: _160  and  _161
REMARK   66  A    between atoms: _164  and  _166
REMARK   67  A    between atoms: _166  and  _167
REMARK   68  A    between atoms: _166  and  _169
REMARK   69  A    between atoms: _169  and  _170
REMARK   70  A    between atoms: _175  and  _176
REMARK   71  A    between atoms: _178  and  _180
REMARK   72  A    between atoms: _180  and  _181
REMARK   73  A    between atoms: _180  and  _183
REMARK   74  A    between atoms: _183  and  _184
REMARK   75  A    between atoms: _184  and  _185
REMARK   76  A    between atoms: _185  and  _186
REMARK   77  A    between atoms: _195  and  _197
REMARK   78  A    between atoms: _197  and  _198
REMARK   79  A    between atoms: _197  and  _200
REMARK   80  A    between atoms: _200  and  _201
REMARK   81  A    between atoms: _204  and  _206
REMARK   82  A    between atoms: _206  and  _207
REMARK   83  A    between atoms: _206  and  _209
REMARK   84  A    between atoms: _209  and  _210
REMARK   85  A    between atoms: _210  and  _211
REMARK   86  A    between atoms: _211  and  _212
REMARK   87  A    between atoms: _212  and  _213
REMARK   88  A    between atoms: _217  and  _219
REMARK   89  A    between atoms: _219  and  _220
REMARK   90  A    between atoms: _219  and  _222
REMARK   91  A    between atoms: _222  and  _223
REMARK   92  A    between atoms: _223  and  _224
REMARK   93  A    between atoms: _229  and  _231
REMARK   94  A    between atoms: _231  and  _232
REMARK   95  A    between atoms: _231  and  _234
REMARK   96  A    between atoms: _234  and  _235
REMARK   97  A    between atoms: _235  and  _236
REMARK   98  A    between atoms: _236  and  _237
REMARK   99  A    between atoms: _246  and  _248
REMARK  100  A    between atoms: _248  and  _249
REMARK  101  A    between atoms: _248  and  _251
REMARK  102  A    between atoms: _251  and  _252
REMARK  103  A    between atoms: _252  and  _253
REMARK  104  A    between atoms: _258  and  _260
REMARK  105  A    between atoms: _260  and  _261
REMARK  106  A    between atoms: _260  and  _263
REMARK  107  A    between atoms: _263  and  _264
REMARK  108  A    between atoms: _267  and  _269
REMARK  109  A    between atoms: _269  and  _270
REMARK  110  A    between atoms: _269  and  _272
REMARK  111  A    between atoms: _272  and  _273
REMARK  112  A    between atoms: _273  and  _274
REMARK  113  A    between atoms: _279  and  _281
REMARK  114  A    between atoms: _281  and  _282
REMARK  115  A    between atoms: _281  and  _284
REMARK  116  A    between atoms: _284  and  _285
REMARK  117  A    between atoms: _288  and  _290
REMARK  118  A    between atoms: _290  and  _291
REMARK  119  A    between atoms: _290  and  _293
REMARK  120  A    between atoms: _293  and  _294
REMARK  121  A    between atoms: _300  and  _302
REMARK  122  A    between atoms: _302  and  _303
REMARK  123  A    between atoms: _302  and  _305
REMARK  124  A    between atoms: _305  and  _306
REMARK  125  A    between atoms: _309  and  _311
REMARK  126  A    between atoms: _311  and  _312
REMARK  127  A    between atoms: _311  and  _314
REMARK  128  A    between atoms: _317  and  _319
REMARK  129  A    between atoms: _319  and  _320
REMARK  130  A    between atoms: _319  and  _322
REMARK  131  A    between atoms: _322  and  _323
REMARK  132  A    between atoms: _328  and  _330
REMARK  133  A    between atoms: _341  and  _344
REMARK  134  A    between atoms: _344  and  _345
REMARK  135  A    between atoms: _345  and  _346
REMARK  136  A    between atoms: _351  and  _354
REMARK  137  A    between atoms: _354  and  _355
REMARK  138  A    between atoms: _365  and  _366
REMARK  139  A    between atoms: _374  and  _376
REMARK  140  A    between atoms: _376  and  _377
REMARK  141  A    between atoms: _376  and  _379
REMARK  142  A    between atoms: _379  and  _380
REMARK  143  A    between atoms: _383  and  _385
REMARK  144  A    between atoms: _385  and  _386
REMARK  145  A    between atoms: _385  and  _388
REMARK  146  A    between atoms: _388  and  _389
REMARK  147  A    between atoms: _394  and  _395
REMARK  148  A    between atoms: _397  and  _399
REMARK  149  A    between atoms: _399  and  _400
REMARK  150  A    between atoms: _399  and  _402
REMARK  151  A    between atoms: _402  and  _403
REMARK  152  A    between atoms: _409  and  _411
REMARK  153  A    between atoms: _411  and  _412
REMARK  154  A    between atoms: _411  and  _414
REMARK  155  A    between atoms: _414  and  _415
REMARK  156  A    between atoms: _420  and  _421
REMARK  157  A    between atoms: _423  and  _425
REMARK  158  A    between atoms: _425  and  _426
REMARK  159  A    between atoms: _425  and  _428
REMARK  160  A    between atoms: _428  and  _429
REMARK  161  A    between atoms: _429  and  _430
REMARK  162  A    between atoms: _430  and  _431
REMARK  163  A    between atoms: _440  and  _442
REMARK  164  A    between atoms: _442  and  _443
REMARK  165  A    between atoms: _442  and  _445
REMARK  166  A    between atoms: _445  and  _446
REMARK  167  A    between atoms: _449  and  _451
REMARK  168  A    between atoms: _451  and  _452
REMARK  169  A    between atoms: _454  and  _456
REMARK  170  A    between atoms: _456  and  _457
REMARK  171  A    between atoms: _456  and  _459
REMARK  172  A    between atoms: _459  and  _460
REMARK  173  A    between atoms: _466  and  _467
REMARK  174  A    between atoms: _472  and  _474
REMARK  175  A    between atoms: _474  and  _475
REMARK  176  A    between atoms: _477  and  _479
REMARK  177  A    between atoms: _479  and  _480
REMARK  178  A    between atoms: _479  and  _482
REMARK  179  A    between atoms: _482  and  _483
REMARK  180  A    between atoms: _489  and  _491
REMARK  181  A    between atoms: _491  and  _492
REMARK  182  A    between atoms: _491  and  _494
REMARK  183  A    between atoms: _494  and  _495
REMARK  184  A    between atoms: _500  and  _502
REMARK  185  A    between atoms: _502  and  _503
REMARK  186  A    between atoms: _502  and  _505
REMARK  187  A    between atoms: _505  and  _506
REMARK  188  A    between atoms: _506  and  _507
REMARK  189  A    between atoms: _507  and  _508
REMARK  190  A    between atoms: _508  and  ZN_790
REMARK  191  A    between atoms: _510  and  _512
REMARK  192  A    between atoms: _512  and  _513
REMARK  193  A    between atoms: _516  and  _518
REMARK  194  A    between atoms: _518  and  _519
REMARK  195  A    between atoms: _521  and  _523
REMARK  196  A    between atoms: _523  and  _524
REMARK  197  A    between atoms: _523  and  _526
REMARK  198  A    between atoms: _526  and  _527
REMARK  199  A    between atoms: _530  and  _532
REMARK  200  A    between atoms: _532  and  _533
REMARK  201  A    between atoms: _532  and  _535
REMARK  202  A    between atoms: _538  and  _540
REMARK  203  A    between atoms: _540  and  _541
REMARK  204  A    between atoms: _540  and  _543
REMARK  205  A    between atoms: _543  and  _544
REMARK  206  A    between atoms: _546  and  _548
REMARK  207  A    between atoms: _548  and  _549
REMARK  208  A    between atoms: _548  and  _551
REMARK  209  A    between atoms: _551  and  _552
REMARK  210  A    between atoms: _555  and  _557
REMARK  211  A    between atoms: _557  and  _558
REMARK  212  A    between atoms: _557  and  _560
REMARK  213  A    between atoms: _560  and  _561
REMARK  214  A    between atoms: _563  and  _565
REMARK  215  A    between atoms: _565  and  _566
REMARK  216  A    between atoms: _565  and  _568
REMARK  217  A    between atoms: _568  and  _569
REMARK  218  A    between atoms: _572  and  _574
REMARK  219  A    between atoms: _574  and  _575
REMARK  220  A    between atoms: _574  and  _577
REMARK  221  A    between atoms: _577  and  _578
REMARK  222  A    between atoms: _578  and  _579
REMARK  223  A    between atoms: _579  and  _580
REMARK  224  A    between atoms: _580  and  _581
REMARK  225  A    between atoms: _585  and  _587
REMARK  226  A    between atoms: _587  and  _588
REMARK  227  A    between atoms: _587  and  _590
REMARK  228  A    between atoms: _590  and  _591
REMARK  229  A    between atoms: _597  and  _599
REMARK  230  A    between atoms: _599  and  _600
REMARK  231  A    between atoms: _599  and  _602
REMARK  232  A    between atoms: _602  and  _603
REMARK  233  A    between atoms: _609  and  _611
REMARK  234  A    between atoms: _611  and  _612
REMARK  235  A    between atoms: _615  and  _617
REMARK  236  A    between atoms: _617  and  _618
REMARK  237  A    between atoms: _617  and  _620
REMARK  238  A    between atoms: _620  and  _621
REMARK  239  A    between atoms: _621  and  _622
REMARK  240  A    between atoms: _624  and  _626
REMARK  241  A    between atoms: _626  and  _627
REMARK  242  A    between atoms: _626  and  _629
REMARK  243  A    between atoms: _629  and  _630
REMARK  244  A    between atoms: _630  and  _631
REMARK  245  A    between atoms: _631  and  _632
REMARK  246  A    between atoms: _632  and  _633
REMARK  247  A    between atoms: _637  and  _639
REMARK  248  A    between atoms: _639  and  _640
REMARK  249  A    between atoms: _639  and  _642
REMARK  250  A    between atoms: _642  and  _643
REMARK  251  A    between atoms: _648  and  _649
REMARK  252  A    between atoms: _651  and  _653
REMARK  253  A    between atoms: _653  and  _654
REMARK  254  A    between atoms: _653  and  _656
REMARK  255  A    between atoms: _656  and  _657
REMARK  256  A    between atoms: _662  and  _664
REMARK  257  A    between atoms: _664  and  _665
REMARK  258  A    between atoms: _664  and  _667
REMARK  259  A    between atoms: _667  and  _668
REMARK  260  A    between atoms: _671  and  _673
REMARK  261  A    between atoms: _673  and  _674
REMARK  262  A    between atoms: _677  and  _679
REMARK  263  A    between atoms: _679  and  _680
REMARK  264  A    between atoms: _679  and  _682
REMARK  265  A    between atoms: _682  and  _683
REMARK  266  A    between atoms: _686  and  _688
REMARK  267  A    between atoms: _688  and  _689
REMARK  268  A    between atoms: _688  and  _691
REMARK  269  A    between atoms: _694  and  _696
REMARK  270  A    between atoms: _696  and  _697
REMARK  271  A    between atoms: _696  and  _699
REMARK  272  A    between atoms: _699  and  _700
REMARK  273  A    between atoms: _700  and  _701
REMARK  274  A    between atoms: _704  and  _706
REMARK  275  A    between atoms: _706  and  _707
REMARK  276  A    between atoms: _706  and  _709
REMARK  277  A    between atoms: _709  and  _710
REMARK  278  A    between atoms: _715  and  _716
REMARK  279  A    between atoms: _718  and  _720
REMARK  280  A    between atoms: _720  and  _721
REMARK  281  A    between atoms: _720  and  _723
REMARK  282  A    between atoms: _723  and  _724
REMARK  283  A    between atoms: _724  and  _725
REMARK  284  A    between atoms: _725  and  _726
REMARK  285  A    between atoms: _735  and  _737
REMARK  286  A    between atoms: _737  and  _738
REMARK  287  A    between atoms: _737  and  _740
REMARK  288  A    between atoms: _740  and  _741
REMARK  289  A    between atoms: _746  and  _747
REMARK  290  A    between atoms: _749  and  _751
REMARK  291  A    between atoms: _751  and  _752
REMARK  292  A    between atoms: _751  and  _754
REMARK  293  A    between atoms: _754  and  _755
REMARK  294  A    between atoms: _758  and  _760
REMARK  295  A    between atoms: _760  and  _761
REMARK  296  A    between atoms: _760  and  _763
REMARK  297  A    between atoms: _763  and  _764
REMARK  298  A    between atoms: _766  and  _768
REMARK  299  A    between atoms: _768  and  _769
REMARK  300  A    between atoms: _768  and  _771
REMARK  301  A    between atoms: _771  and  _772
REMARK  302  A    between atoms: _778  and  _780
REMARK  303  A    between atoms: _780  and  _781
REMARK  304  A    between atoms: _780  and  _783
REMARK  305  A    between atoms: _783  and  _784
REMARK  306  A    between atoms: _784  and  _785
REMARK                            x       y       z     vdW  Elec       q    Type
REMARK                         _______ _______ _______ _____ _____    ______ ____
ROOT
ATOM      1  O   HOH     1      29.456   6.789  13.943  0.00  0.00    +0.000 OA
ENDROOT
TORSDOF 0
REMARK  Name = ../refined-set-2016/4ca7/4ca7_pocket.pdb
REMARK  306 active torsions:
REMARK  status: ('A' for Active; 'I' for Inactive)
REMARK    1  A    between atoms: _1  and  _3
REMARK    2  A    between atoms: _3  and  _4
REMARK    3  A    between atoms: _3  and  _6
REMARK    4  A    between atoms: _6  and  _7
REMARK    5  A    between atoms: _7  and  _8
REMARK    6  A    between atoms: _8  and  _9
REMARK    7  A    between atoms: _9  and  _10
REMARK    8  A    between atoms: _14  and  _16
REMARK    9  A    between atoms: _16  and  _17
REMARK   10  A    between atoms: _16  and  _19
REMARK   11  A    between atoms: _19  and  _20
REMARK   12  A    between atoms: _20  and  _21
REMARK   13  A    between atoms: _24  and  _26
REMARK   14  A    between atoms: _26  and  _27
REMARK   15  A    between atoms: _26  and  _29
REMARK   16  A    between atoms: _29  and  _30
REMARK   17  A    between atoms: _30  and  _31
REMARK   18  A    between atoms: _34  and  _36
REMARK   19  A    between atoms: _36  and  _37
REMARK   20  A    between atoms: _36  and  _39
REMARK   21  A    between atoms: _39  and  _40
REMARK   22  A    between atoms: _45  and  _47
REMARK   23  A    between atoms: _47  and  _48
REMARK   24  A    between atoms: _47  and  _50
REMARK   25  A    between atoms: _50  and  _51
REMARK   26  A    between atoms: _61  and  _63
REMARK   27  A    between atoms: _63  and  _64
REMARK   28  A    between atoms: _63  and  _66
REMARK   29  A    between atoms: _66  and  _67
REMARK   30  A    between atoms: _67  and  _68
REMARK   31  A    between atoms: _73  and  _75
REMARK   32  A    between atoms: _75  and  _76
REMARK   33  A    between atoms: _75  and  _78
REMARK   34  A    between atoms: _78  and  _79
REMARK   35  A    between atoms: _79  and  _80
REMARK   36  A    between atoms: _85  and  _87
REMARK   37  A    between atoms: _87  and  _88
REMARK   38  A    between atoms: _87  and  _90
REMARK   39  A    between atoms: _90  and  _91
REMARK   40  A    between atoms: _93  and  _95
REMARK   41  A    between atoms: _95  and  _96
REMARK   42  A    between atoms: _95  and  _98
REMARK   43  A    between atoms: _101  and  _103
REMARK   44  A    between atoms: _103  and  _104
REMARK   45  A    between atoms: _103  and  _106
REMARK   46  A    between atoms: _108  and  _110
REMARK   47  A    between atoms: _110  and  _111
REMARK   48  A    between atoms: _110  and  _113
REMARK   49  A    between atoms: _113  and  _114
REMARK   50  A    between atoms: _119  and  _121
REMARK   51  A    between atoms: _121  and  _122
REMARK   52  A    between atoms: _125  and  _127
REMARK   53  A    between atoms: _127  and  _128
REMARK   54  A    between atoms: _127  and  _130
REMARK   55  A    between atoms: _130  and  _131
REMARK   56  A    between atoms: _133  and  _135
REMARK   57  A    between atoms: _135  and  _136
REMARK   58  A    between atoms: _139  and  _141
REMARK   59  A    between atoms: _141  and  _142
REMARK   60  A    between atoms: _141  and  _144
REMARK   61  A    between atoms: _144  and  _145
REMARK   62  A    between atoms: _155  and  _157
REMARK   63  A    between atoms: _157  and  _158
REMARK   64  A    between atoms: _157  and  _160
REMARK   65  A    between atoms: _160  and  _161
REMARK   66  A    between atoms: _164  and  _166
REMARK   67  A    between atoms: _166  and  _167
REMARK   68  A    between atoms: _166  and  _169
REMARK   69  A    between atoms: _169  and  _170
REMARK   70  A    between atoms: _175  and  _176
REMARK   71  A    between atoms: _178  and  _180
REMARK   72  A    between atoms: _180  and  _181
REMARK   73  A    between atoms: _180  and  _183
REMARK   74  A    between atoms: _183  and  _184
REMARK   75  A    between atoms: _184  and  _185
REMARK   76  A    between atoms: _185  and  _186
REMARK   77  A    between atoms: _195  and  _197
REMARK   78  A    between atoms: _197  and  _198
REMARK   79  A    between atoms: _197  and  _200
REMARK   80  A    between atoms: _200  and  _201
REMARK   81  A    between atoms: _204  and  _206
REMARK   82  A    between atoms: _206  and  _207
REMARK   83  A    between atoms: _206  and  _209
REMARK   84  A    between atoms: _209  and  _210
REMARK   85  A    between atoms: _210  and  _211
REMARK   86  A    between atoms: _211  and  _212
REMARK   87  A    between atoms: _212  and  _213
REMARK   88  A    between atoms: _217  and  _219
REMARK   89  A    between atoms: _219  and  _220
REMARK   90  A    between atoms: _219  and  _222
REMARK   91  A    between atoms: _222  and  _223
REMARK   92  A    between atoms: _223  and  _224
REMARK   93  A    between atoms: _229  and  _231
REMARK   94  A    between atoms: _231  and  _232
REMARK   95  A    between atoms: _231  and  _234
REMARK   96  A    between atoms: _234  and  _235
REMARK   97  A    between atoms: _235  and  _236
REMARK   98  A    between atoms: _236  and  _237
REMARK   99  A    between atoms: _246  and  _248
REMARK  100  A    between atoms: _248  and  _249
REMARK  101  A    between atoms: _248  and  _251
REMARK  102  A    between atoms: _251  and  _252
REMARK  103  A    between atoms: _252  and  _253
REMARK  104  A    between atoms: _258  and  _260
REMARK  105  A    between atoms: _260  and  _261
REMARK  106  A    between atoms: _260  and  _263
REMARK  107  A    between atoms: _263  and  _264
REMARK  108  A    between atoms: _267  and  _269
REMARK  109  A    between atoms: _269  and  _270
REMARK  110  A    between atoms: _269  and  _272
REMARK  111  A    between atoms: _272  and  _273
REMARK  112  A    between atoms: _273  and  _274
REMARK  113  A    between atoms: _279  and  _281
REMARK  114  A    between atoms: _281  and  _282
REMARK  115  A    between atoms: _281  and  _284
REMARK  116  A    between atoms: _284  and  _285
REMARK  117  A    between atoms: _288  and  _290
REMARK  118  A    between atoms: _290  and  _291
REMARK  119  A    between atoms: _290  and  _293
REMARK  120  A    between atoms: _293  and  _294
REMARK  121  A    between atoms: _300  and  _302
REMARK  122  A    between atoms: _302  and  _303
REMARK  123  A    between atoms: _302  and  _305
REMARK  124  A    between atoms: _305  and  _306
REMARK  125  A    between atoms: _309  and  _311
REMARK  126  A    between atoms: _311  and  _312
REMARK  127  A    between atoms: _311  and  _314
REMARK  128  A    between atoms: _317  and  _319
REMARK  129  A    between atoms: _319  and  _320
REMARK  130  A    between atoms: _319  and  _322
REMARK  131  A    between atoms: _322  and  _323
REMARK  132  A    between atoms: _328  and  _330
REMARK  133  A    between atoms: _341  and  _344
REMARK  134  A    between atoms: _344  and  _345
REMARK  135  A    between atoms: _345  and  _346
REMARK  136  A    between atoms: _351  and  _354
REMARK  137  A    between atoms: _354  and  _355
REMARK  138  A    between atoms: _365  and  _366
REMARK  139  A    between atoms: _374  and  _376
REMARK  140  A    between atoms: _376  and  _377
REMARK  141  A    between atoms: _376  and  _379
REMARK  142  A    between atoms: _379  and  _380
REMARK  143  A    between atoms: _383  and  _385
REMARK  144  A    between atoms: _385  and  _386
REMARK  145  A    between atoms: _385  and  _388
REMARK  146  A    between atoms: _388  and  _389
REMARK  147  A    between atoms: _394  and  _395
REMARK  148  A    between atoms: _397  and  _399
REMARK  149  A    between atoms: _399  and  _400
REMARK  150  A    between atoms: _399  and  _402
REMARK  151  A    between atoms: _402  and  _403
REMARK  152  A    between atoms: _409  and  _411
REMARK  153  A    between atoms: _411  and  _412
REMARK  154  A    between atoms: _411  and  _414
REMARK  155  A    between atoms: _414  and  _415
REMARK  156  A    between atoms: _420  and  _421
REMARK  157  A    between atoms: _423  and  _425
REMARK  158  A    between atoms: _425  and  _426
REMARK  159  A    between atoms: _425  and  _428
REMARK  160  A    between atoms: _428  and  _429
REMARK  161  A    between atoms: _429  and  _430
REMARK  162  A    between atoms: _430  and  _431
REMARK  163  A    between atoms: _440  and  _442
REMARK  164  A    between atoms: _442  and  _443
REMARK  165  A    between atoms: _442  and  _445
REMARK  166  A    between atoms: _445  and  _446
REMARK  167  A    between atoms: _449  and  _451
REMARK  168  A    between atoms: _451  and  _452
REMARK  169  A    between atoms: _454  and  _456
REMARK  170  A    between atoms: _456  and  _457
REMARK  171  A    between atoms: _456  and  _459
REMARK  172  A    between atoms: _459  and  _460
REMARK  173  A    between atoms: _466  and  _467
REMARK  174  A    between atoms: _472  and  _474
REMARK  175  A    between atoms: _474  and  _475
REMARK  176  A    between atoms: _477  and  _479
REMARK  177  A    between atoms: _479  and  _480
REMARK  178  A    between atoms: _479  and  _482
REMARK  179  A    between atoms: _482  and  _483
REMARK  180  A    between atoms: _489  and  _491
REMARK  181  A    between atoms: _491  and  _492
REMARK  182  A    between atoms: _491  and  _494
REMARK  183  A    between atoms: _494  and  _495
REMARK  184  A    between atoms: _500  and  _502
REMARK  185  A    between atoms: _502  and  _503
REMARK  186  A    between atoms: _502  and  _505
REMARK  187  A    between atoms: _505  and  _506
REMARK  188  A    between atoms: _506  and  _507
REMARK  189  A    between atoms: _507  and  _508
REMARK  190  A    between atoms: _508  and  ZN_790
REMARK  191  A    between atoms: _510  and  _512
REMARK  192  A    between atoms: _512  and  _513
REMARK  193  A    between atoms: _516  and  _518
REMARK  194  A    between atoms: _518  and  _519
REMARK  195  A    between atoms: _521  and  _523
REMARK  196  A    between atoms: _523  and  _524
REMARK  197  A    between atoms: _523  and  _526
REMARK  198  A    between atoms: _526  and  _527
REMARK  199  A    between atoms: _530  and  _532
REMARK  200  A    between atoms: _532  and  _533
REMARK  201  A    between atoms: _532  and  _535
REMARK  202  A    between atoms: _538  and  _540
REMARK  203  A    between atoms: _540  and  _541
REMARK  204  A    between atoms: _540  and  _543
REMARK  205  A    between atoms: _543  and  _544
REMARK  206  A    between atoms: _546  and  _548
REMARK  207  A    between atoms: _548  and  _549
REMARK  208  A    between atoms: _548  and  _551
REMARK  209  A    between atoms: _551  and  _552
REMARK  210  A    between atoms: _555  and  _557
REMARK  211  A    between atoms: _557  and  _558
REMARK  212  A    between atoms: _557  and  _560
REMARK  213  A    between atoms: _560  and  _561
REMARK  214  A    between atoms: _563  and  _565
REMARK  215  A    between atoms: _565  and  _566
REMARK  216  A    between atoms: _565  and  _568
REMARK  217  A    between atoms: _568  and  _569
REMARK  218  A    between atoms: _572  and  _574
REMARK  219  A    between atoms: _574  and  _575
REMARK  220  A    between atoms: _574  and  _577
REMARK  221  A    between atoms: _577  and  _578
REMARK  222  A    between atoms: _578  and  _579
REMARK  223  A    between atoms: _579  and  _580
REMARK  224  A    between atoms: _580  and  _581
REMARK  225  A    between atoms: _585  and  _587
REMARK  226  A    between atoms: _587  and  _588
REMARK  227  A    between atoms: _587  and  _590
REMARK  228  A    between atoms: _590  and  _591
REMARK  229  A    between atoms: _597  and  _599
REMARK  230  A    between atoms: _599  and  _600
REMARK  231  A    between atoms: _599  and  _602
REMARK  232  A    between atoms: _602  and  _603
REMARK  233  A    between atoms: _609  and  _611
REMARK  234  A    between atoms: _611  and  _612
REMARK  235  A    between atoms: _615  and  _617
REMARK  236  A    between atoms: _617  and  _618
REMARK  237  A    between atoms: _617  and  _620
REMARK  238  A    between atoms: _620  and  _621
REMARK  239  A    between atoms: _621  and  _622
REMARK  240  A    between atoms: _624  and  _626
REMARK  241  A    between atoms: _626  and  _627
REMARK  242  A    between atoms: _626  and  _629
REMARK  243  A    between atoms: _629  and  _630
REMARK  244  A    between atoms: _630  and  _631
REMARK  245  A    between atoms: _631  and  _632
REMARK  246  A    between atoms: _632  and  _633
REMARK  247  A    between atoms: _637  and  _639
REMARK  248  A    between atoms: _639  and  _640
REMARK  249  A    between atoms: _639  and  _642
REMARK  250  A    between atoms: _642  and  _643
REMARK  251  A    between atoms: _648  and  _649
REMARK  252  A    between atoms: _651  and  _653
REMARK  253  A    between atoms: _653  and  _654
REMARK  254  A    between atoms: _653  and  _656
REMARK  255  A    between atoms: _656  and  _657
REMARK  256  A    between atoms: _662  and  _664
REMARK  257  A    between atoms: _664  and  _665
REMARK  258  A    between atoms: _664  and  _667
REMARK  259  A    between atoms: _667  and  _668
REMARK  260  A    between atoms: _671  and  _673
REMARK  261  A    between atoms: _673  and  _674
REMARK  262  A    between atoms: _677  and  _679
REMARK  263  A    between atoms: _679  and  _680
REMARK  264  A    between atoms: _679  and  _682
REMARK  265  A    between atoms: _682  and  _683
REMARK  266  A    between atoms: _686  and  _688
REMARK  267  A    between atoms: _688  and  _689
REMARK  268  A    between atoms: _688  and  _691
REMARK  269  A    between atoms: _694  and  _696
REMARK  270  A    between atoms: _696  and  _697
REMARK  271  A    between atoms: _696  and  _699
REMARK  272  A    between atoms: _699  and  _700
REMARK  273  A    between atoms: _700  and  _701
REMARK  274  A    between atoms: _704  and  _706
REMARK  275  A    between atoms: _706  and  _707
REMARK  276  A    between atoms: _706  and  _709
REMARK  277  A    between atoms: _709  and  _710
REMARK  278  A    between atoms: _715  and  _716
REMARK  279  A    between atoms: _718  and  _720
REMARK  280  A    between atoms: _720  and  _721
REMARK  281  A    between atoms: _720  and  _723
REMARK  282  A    between atoms: _723  and  _724
REMARK  283  A    between atoms: _724  and  _725
REMARK  284  A    between atoms: _725  and  _726
REMARK  285  A    between atoms: _735  and  _737
REMARK  286  A    between atoms: _737  and  _738
REMARK  287  A    between atoms: _737  and  _740
REMARK  288  A    between atoms: _740  and  _741
REMARK  289  A    between atoms: _746  and  _747
REMARK  290  A    between atoms: _749  and  _751
REMARK  291  A    between atoms: _751  and  _752
REMARK  292  A    between atoms: _751  and  _754
REMARK  293  A    between atoms: _754  and  _755
REMARK  294  A    between atoms: _758  and  _760
REMARK  295  A    between atoms: _760  and  _761
REMARK  296  A    between atoms: _760  and  _763
REMARK  297  A    between atoms: _763  and  _764
REMARK  298  A    between atoms: _766  and  _768
REMARK  299  A    between atoms: _768  and  _769
REMARK  300  A    between atoms: _768  and  _771
REMARK  301  A    between atoms: _771  and  _772
REMARK  302  A    between atoms: _778  and  _780
REMARK  303  A    between atoms: _780  and  _781
REMARK  304  A    between atoms: _780  and  _783
REMARK  305  A    between atoms: _783  and  _784
REMARK  306  A    between atoms: _784  and  _785
REMARK                            x       y       z     vdW  Elec       q    Type
REMARK                         _______ _______ _______ _____ _____    ______ ____
ROOT
ATOM      1  O   HOH     1      30.640   6.644  18.592  0.00  0.00    +0.000 OA
ENDROOT
TORSDOF 0
REMARK  Name = ../refined-set-2016/4ca7/4ca7_pocket.pdb
REMARK  306 active torsions:
REMARK  status: ('A' for Active; 'I' for Inactive)
REMARK    1  A    between atoms: _1  and  _3
REMARK    2  A    between atoms: _3  and  _4
REMARK    3  A    between atoms: _3  and  _6
REMARK    4  A    between atoms: _6  and  _7
REMARK    5  A    between atoms: _7  and  _8
REMARK    6  A    between atoms: _8  and  _9
REMARK    7  A    between atoms: _9  and  _10
REMARK    8  A    between atoms: _14  and  _16
REMARK    9  A    between atoms: _16  and  _17
REMARK   10  A    between atoms: _16  and  _19
REMARK   11  A    between atoms: _19  and  _20
REMARK   12  A    between atoms: _20  and  _21
REMARK   13  A    between atoms: _24  and  _26
REMARK   14  A    between atoms: _26  and  _27
REMARK   15  A    between atoms: _26  and  _29
REMARK   16  A    between atoms: _29  and  _30
REMARK   17  A    between atoms: _30  and  _31
REMARK   18  A    between atoms: _34  and  _36
REMARK   19  A    between atoms: _36  and  _37
REMARK   20  A    between atoms: _36  and  _39
REMARK   21  A    between atoms: _39  and  _40
REMARK   22  A    between atoms: _45  and  _47
REMARK   23  A    between atoms: _47  and  _48
REMARK   24  A    between atoms: _47  and  _50
REMARK   25  A    between atoms: _50  and  _51
REMARK   26  A    between atoms: _61  and  _63
REMARK   27  A    between atoms: _63  and  _64
REMARK   28  A    between atoms: _63  and  _66
REMARK   29  A    between atoms: _66  and  _67
REMARK   30  A    between atoms: _67  and  _68
REMARK   31  A    between atoms: _73  and  _75
REMARK   32  A    between atoms: _75  and  _76
REMARK   33  A    between atoms: _75  and  _78
REMARK   34  A    between atoms: _78  and  _79
REMARK   35  A    between atoms: _79  and  _80
REMARK   36  A    between atoms: _85  and  _87
REMARK   37  A    between atoms: _87  and  _88
REMARK   38  A    between atoms: _87  and  _90
REMARK   39  A    between atoms: _90  and  _91
REMARK   40  A    between atoms: _93  and  _95
REMARK   41  A    between atoms: _95  and  _96
REMARK   42  A    between atoms: _95  and  _98
REMARK   43  A    between atoms: _101  and  _103
REMARK   44  A    between atoms: _103  and  _104
REMARK   45  A    between atoms: _103  and  _106
REMARK   46  A    between atoms: _108  and  _110
REMARK   47  A    between atoms: _110  and  _111
REMARK   48  A    between atoms: _110  and  _113
REMARK   49  A    between atoms: _113  and  _114
REMARK   50  A    between atoms: _119  and  _121
REMARK   51  A    between atoms: _121  and  _122
REMARK   52  A    between atoms: _125  and  _127
REMARK   53  A    between atoms: _127  and  _128
REMARK   54  A    between atoms: _127  and  _130
REMARK   55  A    between atoms: _130  and  _131
REMARK   56  A    between atoms: _133  and  _135
REMARK   57  A    between atoms: _135  and  _136
REMARK   58  A    between atoms: _139  and  _141
REMARK   59  A    between atoms: _141  and  _142
REMARK   60  A    between atoms: _141  and  _144
REMARK   61  A    between atoms: _144  and  _145
REMARK   62  A    between atoms: _155  and  _157
REMARK   63  A    between atoms: _157  and  _158
REMARK   64  A    between atoms: _157  and  _160
REMARK   65  A    between atoms: _160  and  _161
REMARK   66  A    between atoms: _164  and  _166
REMARK   67  A    between atoms: _166  and  _167
REMARK   68  A    between atoms: _166  and  _169
REMARK   69  A    between atoms: _169  and  _170
REMARK   70  A    between atoms: _175  and  _176
REMARK   71  A    between atoms: _178  and  _180
REMARK   72  A    between atoms: _180  and  _181
REMARK   73  A    between atoms: _180  and  _183
REMARK   74  A    between atoms: _183  and  _184
REMARK   75  A    between atoms: _184  and  _185
REMARK   76  A    between atoms: _185  and  _186
REMARK   77  A    between atoms: _195  and  _197
REMARK   78  A    between atoms: _197  and  _198
REMARK   79  A    between atoms: _197  and  _200
REMARK   80  A    between atoms: _200  and  _201
REMARK   81  A    between atoms: _204  and  _206
REMARK   82  A    between atoms: _206  and  _207
REMARK   83  A    between atoms: _206  and  _209
REMARK   84  A    between atoms: _209  and  _210
REMARK   85  A    between atoms: _210  and  _211
REMARK   86  A    between atoms: _211  and  _212
REMARK   87  A    between atoms: _212  and  _213
REMARK   88  A    between atoms: _217  and  _219
REMARK   89  A    between atoms: _219  and  _220
REMARK   90  A    between atoms: _219  and  _222
REMARK   91  A    between atoms: _222  and  _223
REMARK   92  A    between atoms: _223  and  _224
REMARK   93  A    between atoms: _229  and  _231
REMARK   94  A    between atoms: _231  and  _232
REMARK   95  A    between atoms: _231  and  _234
REMARK   96  A    between atoms: _234  and  _235
REMARK   97  A    between atoms: _235  and  _236
REMARK   98  A    between atoms: _236  and  _237
REMARK   99  A    between atoms: _246  and  _248
REMARK  100  A    between atoms: _248  and  _249
REMARK  101  A    between atoms: _248  and  _251
REMARK  102  A    between atoms: _251  and  _252
REMARK  103  A    between atoms: _252  and  _253
REMARK  104  A    between atoms: _258  and  _260
REMARK  105  A    between atoms: _260  and  _261
REMARK  106  A    between atoms: _260  and  _263
REMARK  107  A    between atoms: _263  and  _264
REMARK  108  A    between atoms: _267  and  _269
REMARK  109  A    between atoms: _269  and  _270
REMARK  110  A    between atoms: _269  and  _272
REMARK  111  A    between atoms: _272  and  _273
REMARK  112  A    between atoms: _273  and  _274
REMARK  113  A    between atoms: _279  and  _281
REMARK  114  A    between atoms: _281  and  _282
REMARK  115  A    between atoms: _281  and  _284
REMARK  116  A    between atoms: _284  and  _285
REMARK  117  A    between atoms: _288  and  _290
REMARK  118  A    between atoms: _290  and  _291
REMARK  119  A    between atoms: _290  and  _293
REMARK  120  A    between atoms: _293  and  _294
REMARK  121  A    between atoms: _300  and  _302
REMARK  122  A    between atoms: _302  and  _303
REMARK  123  A    between atoms: _302  and  _305
REMARK  124  A    between atoms: _305  and  _306
REMARK  125  A    between atoms: _309  and  _311
REMARK  126  A    between atoms: _311  and  _312
REMARK  127  A    between atoms: _311  and  _314
REMARK  128  A    between atoms: _317  and  _319
REMARK  129  A    between atoms: _319  and  _320
REMARK  130  A    between atoms: _319  and  _322
REMARK  131  A    between atoms: _322  and  _323
REMARK  132  A    between atoms: _328  and  _330
REMARK  133  A    between atoms: _341  and  _344
REMARK  134  A    between atoms: _344  and  _345
REMARK  135  A    between atoms: _345  and  _346
REMARK  136  A    between atoms: _351  and  _354
REMARK  137  A    between atoms: _354  and  _355
REMARK  138  A    between atoms: _365  and  _366
REMARK  139  A    between atoms: _374  and  _376
REMARK  140  A    between atoms: _376  and  _377
REMARK  141  A    between atoms: _376  and  _379
REMARK  142  A    between atoms: _379  and  _380
REMARK  143  A    between atoms: _383  and  _385
REMARK  144  A    between atoms: _385  and  _386
REMARK  145  A    between atoms: _385  and  _388
REMARK  146  A    between atoms: _388  and  _389
REMARK  147  A    between atoms: _394  and  _395
REMARK  148  A    between atoms: _397  and  _399
REMARK  149  A    between atoms: _399  and  _400
REMARK  150  A    between atoms: _399  and  _402
REMARK  151  A    between atoms: _402  and  _403
REMARK  152  A    between atoms: _409  and  _411
REMARK  153  A    between atoms: _411  and  _412
REMARK  154  A    between atoms: _411  and  _414
REMARK  155  A    between atoms: _414  and  _415
REMARK  156  A    between atoms: _420  and  _421
REMARK  157  A    between atoms: _423  and  _425
REMARK  158  A    between atoms: _425  and  _426
REMARK  159  A    between atoms: _425  and  _428
REMARK  160  A    between atoms: _428  and  _429
REMARK  161  A    between atoms: _429  and  _430
REMARK  162  A    between atoms: _430  and  _431
REMARK  163  A    between atoms: _440  and  _442
REMARK  164  A    between atoms: _442  and  _443
REMARK  165  A    between atoms: _442  and  _445
REMARK  166  A    between atoms: _445  and  _446
REMARK  167  A    between atoms: _449  and  _451
REMARK  168  A    between atoms: _451  and  _452
REMARK  169  A    between atoms: _454  and  _456
REMARK  170  A    between atoms: _456  and  _457
REMARK  171  A    between atoms: _456  and  _459
REMARK  172  A    between atoms: _459  and  _460
REMARK  173  A    between atoms: _466  and  _467
REMARK  174  A    between atoms: _472  and  _474
REMARK  175  A    between atoms: _474  and  _475
REMARK  176  A    between atoms: _477  and  _479
REMARK  177  A    between atoms: _479  and  _480
REMARK  178  A    between atoms: _479  and  _482
REMARK  179  A    between atoms: _482  and  _483
REMARK  180  A    between atoms: _489  and  _491
REMARK  181  A    between atoms: _491  and  _492
REMARK  182  A    between atoms: _491  and  _494
REMARK  183  A    between atoms: _494  and  _495
REMARK  184  A    between atoms: _500  and  _502
REMARK  185  A    between atoms: _502  and  _503
REMARK  186  A    between atoms: _502  and  _505
REMARK  187  A    between atoms: _505  and  _506
REMARK  188  A    between atoms: _506  and  _507
REMARK  189  A    between atoms: _507  and  _508
REMARK  190  A    between atoms: _508  and  ZN_790
REMARK  191  A    between atoms: _510  and  _512
REMARK  192  A    between atoms: _512  and  _513
REMARK  193  A    between atoms: _516  and  _518
REMARK  194  A    between atoms: _518  and  _519
REMARK  195  A    between atoms: _521  and  _523
REMARK  196  A    between atoms: _523  and  _524
REMARK  197  A    between atoms: _523  and  _526
REMARK  198  A    between atoms: _526  and  _527
REMARK  199  A    between atoms: _530  and  _532
REMARK  200  A    between atoms: _532  and  _533
REMARK  201  A    between atoms: _532  and  _535
REMARK  202  A    between atoms: _538  and  _540
REMARK  203  A    between atoms: _540  and  _541
REMARK  204  A    between atoms: _540  and  _543
REMARK  205  A    between atoms: _543  and  _544
REMARK  206  A    between atoms: _546  and  _548
REMARK  207  A    between atoms: _548  and  _549
REMARK  208  A    between atoms: _548  and  _551
REMARK  209  A    between atoms: _551  and  _552
REMARK  210  A    between atoms: _555  and  _557
REMARK  211  A    between atoms: _557  and  _558
REMARK  212  A    between atoms: _557  and  _560
REMARK  213  A    between atoms: _560  and  _561
REMARK  214  A    between atoms: _563  and  _565
REMARK  215  A    between atoms: _565  and  _566
REMARK  216  A    between atoms: _565  and  _568
REMARK  217  A    between atoms: _568  and  _569
REMARK  218  A    between atoms: _572  and  _574
REMARK  219  A    between atoms: _574  and  _575
REMARK  220  A    between atoms: _574  and  _577
REMARK  221  A    between atoms: _577  and  _578
REMARK  222  A    between atoms: _578  and  _579
REMARK  223  A    between atoms: _579  and  _580
REMARK  224  A    between atoms: _580  and  _581
REMARK  225  A    between atoms: _585  and  _587
REMARK  226  A    between atoms: _587  and  _588
REMARK  227  A    between atoms: _587  and  _590
REMARK  228  A    between atoms: _590  and  _591
REMARK  229  A    between atoms: _597  and  _599
REMARK  230  A    between atoms: _599  and  _600
REMARK  231  A    between atoms: _599  and  _602
REMARK  232  A    between atoms: _602  and  _603
REMARK  233  A    between atoms: _609  and  _611
REMARK  234  A    between atoms: _611  and  _612
REMARK  235  A    between atoms: _615  and  _617
REMARK  236  A    between atoms: _617  and  _618
REMARK  237  A    between atoms: _617  and  _620
REMARK  238  A    between atoms: _620  and  _621
REMARK  239  A    between atoms: _621  and  _622
REMARK  240  A    between atoms: _624  and  _626
REMARK  241  A    between atoms: _626  and  _627
REMARK  242  A    between atoms: _626  and  _629
REMARK  243  A    between atoms: _629  and  _630
REMARK  244  A    between atoms: _630  and  _631
REMARK  245  A    between atoms: _631  and  _632
REMARK  246  A    between atoms: _632  and  _633
REMARK  247  A    between atoms: _637  and  _639
REMARK  248  A    between atoms: _639  and  _640
REMARK  249  A    between atoms: _639  and  _642
REMARK  250  A    between atoms: _642  and  _643
REMARK  251  A    between atoms: _648  and  _649
REMARK  252  A    between atoms: _651  and  _653
REMARK  253  A    between atoms: _653  and  _654
REMARK  254  A    between atoms: _653  and  _656
REMARK  255  A    between atoms: _656  and  _657
REMARK  256  A    between atoms: _662  and  _664
REMARK  257  A    between atoms: _664  and  _665
REMARK  258  A    between atoms: _664  and  _667
REMARK  259  A    between atoms: _667  and  _668
REMARK  260  A    between atoms: _671  and  _673
REMARK  261  A    between atoms: _673  and  _674
REMARK  262  A    between atoms: _677  and  _679
REMARK  263  A    between atoms: _679  and  _680
REMARK  264  A    between atoms: _679  and  _682
REMARK  265  A    between atoms: _682  and  _683
REMARK  266  A    between atoms: _686  and  _688
REMARK  267  A    between atoms: _688  and  _689
REMARK  268  A    between atoms: _688  and  _691
REMARK  269  A    between atoms: _694  and  _696
REMARK  270  A    between atoms: _696  and  _697
REMARK  271  A    between atoms: _696  and  _699
REMARK  272  A    between atoms: _699  and  _700
REMARK  273  A    between atoms: _700  and  _701
REMARK  274  A    between atoms: _704  and  _706
REMARK  275  A    between atoms: _706  and  _707
REMARK  276  A    between atoms: _706  and  _709
REMARK  277  A    between atoms: _709  and  _710
REMARK  278  A    between atoms: _715  and  _716
REMARK  279  A    between atoms: _718  and  _720
REMARK  280  A    between atoms: _720  and  _721
REMARK  281  A    between atoms: _720  and  _723
REMARK  282  A    between atoms: _723  and  _724
REMARK  283  A    between atoms: _724  and  _725
REMARK  284  A    between atoms: _725  and  _726
REMARK  285  A    between atoms: _735  and  _737
REMARK  286  A    between atoms: _737  and  _738
REMARK  287  A    between atoms: _737  and  _740
REMARK  288  A    between atoms: _740  and  _741
REMARK  289  A    between atoms: _746  and  _747
REMARK  290  A    between atoms: _749  and  _751
REMARK  291  A    between atoms: _751  and  _752
REMARK  292  A    between atoms: _751  and  _754
REMARK  293  A    between atoms: _754  and  _755
REMARK  294  A    between atoms: _758  and  _760
REMARK  295  A    between atoms: _760  and  _761
REMARK  296  A    between atoms: _760  and  _763
REMARK  297  A    between atoms: _763  and  _764
REMARK  298  A    between atoms: _766  and  _768
REMARK  299  A    between atoms: _768  and  _769
REMARK  300  A    between atoms: _768  and  _771
REMARK  301  A    between atoms: _771  and  _772
REMARK  302  A    between atoms: _778  and  _780
REMARK  303  A    between atoms: _780  and  _781
REMARK  304  A    between atoms: _780  and  _783
REMARK  305  A    between atoms: _783  and  _784
REMARK  306  A    between atoms: _784  and  _785
REMARK                            x       y       z     vdW  Elec       q    Type
REMARK                         _______ _______ _______ _____ _____    ______ ____
ROOT
ATOM      1  O   HOH     1      33.274   6.161  17.913  0.00  0.00    +0.000 OA
ENDROOT
TORSDOF 0
REMARK  Name = ../refined-set-2016/4ca7/4ca7_pocket.pdb
REMARK  306 active torsions:
REMARK  status: ('A' for Active; 'I' for Inactive)
REMARK    1  A    between atoms: _1  and  _3
REMARK    2  A    between atoms: _3  and  _4
REMARK    3  A    between atoms: _3  and  _6
REMARK    4  A    between atoms: _6  and  _7
REMARK    5  A    between atoms: _7  and  _8
REMARK    6  A    between atoms: _8  and  _9
REMARK    7  A    between atoms: _9  and  _10
REMARK    8  A    between atoms: _14  and  _16
REMARK    9  A    between atoms: _16  and  _17
REMARK   10  A    between atoms: _16  and  _19
REMARK   11  A    between atoms: _19  and  _20
REMARK   12  A    between atoms: _20  and  _21
REMARK   13  A    between atoms: _24  and  _26
REMARK   14  A    between atoms: _26  and  _27
REMARK   15  A    between atoms: _26  and  _29
REMARK   16  A    between atoms: _29  and  _30
REMARK   17  A    between atoms: _30  and  _31
REMARK   18  A    between atoms: _34  and  _36
REMARK   19  A    between atoms: _36  and  _37
REMARK   20  A    between atoms: _36  and  _39
REMARK   21  A    between atoms: _39  and  _40
REMARK   22  A    between atoms: _45  and  _47
REMARK   23  A    between atoms: _47  and  _48
REMARK   24  A    between atoms: _47  and  _50
REMARK   25  A    between atoms: _50  and  _51
REMARK   26  A    between atoms: _61  and  _63
REMARK   27  A    between atoms: _63  and  _64
REMARK   28  A    between atoms: _63  and  _66
REMARK   29  A    between atoms: _66  and  _67
REMARK   30  A    between atoms: _67  and  _68
REMARK   31  A    between atoms: _73  and  _75
REMARK   32  A    between atoms: _75  and  _76
REMARK   33  A    between atoms: _75  and  _78
REMARK   34  A    between atoms: _78  and  _79
REMARK   35  A    between atoms: _79  and  _80
REMARK   36  A    between atoms: _85  and  _87
REMARK   37  A    between atoms: _87  and  _88
REMARK   38  A    between atoms: _87  and  _90
REMARK   39  A    between atoms: _90  and  _91
REMARK   40  A    between atoms: _93  and  _95
REMARK   41  A    between atoms: _95  and  _96
REMARK   42  A    between atoms: _95  and  _98
REMARK   43  A    between atoms: _101  and  _103
REMARK   44  A    between atoms: _103  and  _104
REMARK   45  A    between atoms: _103  and  _106
REMARK   46  A    between atoms: _108  and  _110
REMARK   47  A    between atoms: _110  and  _111
REMARK   48  A    between atoms: _110  and  _113
REMARK   49  A    between atoms: _113  and  _114
REMARK   50  A    between atoms: _119  and  _121
REMARK   51  A    between atoms: _121  and  _122
REMARK   52  A    between atoms: _125  and  _127
REMARK   53  A    between atoms: _127  and  _128
REMARK   54  A    between atoms: _127  and  _130
REMARK   55  A    between atoms: _130  and  _131
REMARK   56  A    between atoms: _133  and  _135
REMARK   57  A    between atoms: _135  and  _136
REMARK   58  A    between atoms: _139  and  _141
REMARK   59  A    between atoms: _141  and  _142
REMARK   60  A    between atoms: _141  and  _144
REMARK   61  A    between atoms: _144  and  _145
REMARK   62  A    between atoms: _155  and  _157
REMARK   63  A    between atoms: _157  and  _158
REMARK   64  A    between atoms: _157  and  _160
REMARK   65  A    between atoms: _160  and  _161
REMARK   66  A    between atoms: _164  and  _166
REMARK   67  A    between atoms: _166  and  _167
REMARK   68  A    between atoms: _166  and  _169
REMARK   69  A    between atoms: _169  and  _170
REMARK   70  A    between atoms: _175  and  _176
REMARK   71  A    between atoms: _178  and  _180
REMARK   72  A    between atoms: _180  and  _181
REMARK   73  A    between atoms: _180  and  _183
REMARK   74  A    between atoms: _183  and  _184
REMARK   75  A    between atoms: _184  and  _185
REMARK   76  A    between atoms: _185  and  _186
REMARK   77  A    between atoms: _195  and  _197
REMARK   78  A    between atoms: _197  and  _198
REMARK   79  A    between atoms: _197  and  _200
REMARK   80  A    between atoms: _200  and  _201
REMARK   81  A    between atoms: _204  and  _206
REMARK   82  A    between atoms: _206  and  _207
REMARK   83  A    between atoms: _206  and  _209
REMARK   84  A    between atoms: _209  and  _210
REMARK   85  A    between atoms: _210  and  _211
REMARK   86  A    between atoms: _211  and  _212
REMARK   87  A    between atoms: _212  and  _213
REMARK   88  A    between atoms: _217  and  _219
REMARK   89  A    between atoms: _219  and  _220
REMARK   90  A    between atoms: _219  and  _222
REMARK   91  A    between atoms: _222  and  _223
REMARK   92  A    between atoms: _223  and  _224
REMARK   93  A    between atoms: _229  and  _231
REMARK   94  A    between atoms: _231  and  _232
REMARK   95  A    between atoms: _231  and  _234
REMARK   96  A    between atoms: _234  and  _235
REMARK   97  A    between atoms: _235  and  _236
REMARK   98  A    between atoms: _236  and  _237
REMARK   99  A    between atoms: _246  and  _248
REMARK  100  A    between atoms: _248  and  _249
REMARK  101  A    between atoms: _248  and  _251
REMARK  102  A    between atoms: _251  and  _252
REMARK  103  A    between atoms: _252  and  _253
REMARK  104  A    between atoms: _258  and  _260
REMARK  105  A    between atoms: _260  and  _261
REMARK  106  A    between atoms: _260  and  _263
REMARK  107  A    between atoms: _263  and  _264
REMARK  108  A    between atoms: _267  and  _269
REMARK  109  A    between atoms: _269  and  _270
REMARK  110  A    between atoms: _269  and  _272
REMARK  111  A    between atoms: _272  and  _273
REMARK  112  A    between atoms: _273  and  _274
REMARK  113  A    between atoms: _279  and  _281
REMARK  114  A    between atoms: _281  and  _282
REMARK  115  A    between atoms: _281  and  _284
REMARK  116  A    between atoms: _284  and  _285
REMARK  117  A    between atoms: _288  and  _290
REMARK  118  A    between atoms: _290  and  _291
REMARK  119  A    between atoms: _290  and  _293
REMARK  120  A    between atoms: _293  and  _294
REMARK  121  A    between atoms: _300  and  _302
REMARK  122  A    between atoms: _302  and  _303
REMARK  123  A    between atoms: _302  and  _305
REMARK  124  A    between atoms: _305  and  _306
REMARK  125  A    between atoms: _309  and  _311
REMARK  126  A    between atoms: _311  and  _312
REMARK  127  A    between atoms: _311  and  _314
REMARK  128  A    between atoms: _317  and  _319
REMARK  129  A    between atoms: _319  and  _320
REMARK  130  A    between atoms: _319  and  _322
REMARK  131  A    between atoms: _322  and  _323
REMARK  132  A    between atoms: _328  and  _330
REMARK  133  A    between atoms: _341  and  _344
REMARK  134  A    between atoms: _344  and  _345
REMARK  135  A    between atoms: _345  and  _346
REMARK  136  A    between atoms: _351  and  _354
REMARK  137  A    between atoms: _354  and  _355
REMARK  138  A    between atoms: _365  and  _366
REMARK  139  A    between atoms: _374  and  _376
REMARK  140  A    between atoms: _376  and  _377
REMARK  141  A    between atoms: _376  and  _379
REMARK  142  A    between atoms: _379  and  _380
REMARK  143  A    between atoms: _383  and  _385
REMARK  144  A    between atoms: _385  and  _386
REMARK  145  A    between atoms: _385  and  _388
REMARK  146  A    between atoms: _388  and  _389
REMARK  147  A    between atoms: _394  and  _395
REMARK  148  A    between atoms: _397  and  _399
REMARK  149  A    between atoms: _399  and  _400
REMARK  150  A    between atoms: _399  and  _402
REMARK  151  A    between atoms: _402  and  _403
REMARK  152  A    between atoms: _409  and  _411
REMARK  153  A    between atoms: _411  and  _412
REMARK  154  A    between atoms: _411  and  _414
REMARK  155  A    between atoms: _414  and  _415
REMARK  156  A    between atoms: _420  and  _421
REMARK  157  A    between atoms: _423  and  _425
REMARK  158  A    between atoms: _425  and  _426
REMARK  159  A    between atoms: _425  and  _428
REMARK  160  A    between atoms: _428  and  _429
REMARK  161  A    between atoms: _429  and  _430
REMARK  162  A    between atoms: _430  and  _431
REMARK  163  A    between atoms: _440  and  _442
REMARK  164  A    between atoms: _442  and  _443
REMARK  165  A    between atoms: _442  and  _445
REMARK  166  A    between atoms: _445  and  _446
REMARK  167  A    between atoms: _449  and  _451
REMARK  168  A    between atoms: _451  and  _452
REMARK  169  A    between atoms: _454  and  _456
REMARK  170  A    between atoms: _456  and  _457
REMARK  171  A    between atoms: _456  and  _459
REMARK  172  A    between atoms: _459  and  _460
REMARK  173  A    between atoms: _466  and  _467
REMARK  174  A    between atoms: _472  and  _474
REMARK  175  A    between atoms: _474  and  _475
REMARK  176  A    between atoms: _477  and  _479
REMARK  177  A    between atoms: _479  and  _480
REMARK  178  A    between atoms: _479  and  _482
REMARK  179  A    between atoms: _482  and  _483
REMARK  180  A    between atoms: _489  and  _491
REMARK  181  A    between atoms: _491  and  _492
REMARK  182  A    between atoms: _491  and  _494
REMARK  183  A    between atoms: _494  and  _495
REMARK  184  A    between atoms: _500  and  _502
REMARK  185  A    between atoms: _502  and  _503
REMARK  186  A    between atoms: _502  and  _505
REMARK  187  A    between atoms: _505  and  _506
REMARK  188  A    between atoms: _506  and  _507
REMARK  189  A    between atoms: _507  and  _508
REMARK  190  A    between atoms: _508  and  ZN_790
REMARK  191  A    between atoms: _510  and  _512
REMARK  192  A    between atoms: _512  and  _513
REMARK  193  A    between atoms: _516  and  _518
REMARK  194  A    between atoms: _518  and  _519
REMARK  195  A    between atoms: _521  and  _523
REMARK  196  A    between atoms: _523  and  _524
REMARK  197  A    between atoms: _523  and  _526
REMARK  198  A    between atoms: _526  and  _527
REMARK  199  A    between atoms: _530  and  _532
REMARK  200  A    between atoms: _532  and  _533
REMARK  201  A    between atoms: _532  and  _535
REMARK  202  A    between atoms: _538  and  _540
REMARK  203  A    between atoms: _540  and  _541
REMARK  204  A    between atoms: _540  and  _543
REMARK  205  A    between atoms: _543  and  _544
REMARK  206  A    between atoms: _546  and  _548
REMARK  207  A    between atoms: _548  and  _549
REMARK  208  A    between atoms: _548  and  _551
REMARK  209  A    between atoms: _551  and  _552
REMARK  210  A    between atoms: _555  and  _557
REMARK  211  A    between atoms: _557  and  _558
REMARK  212  A    between atoms: _557  and  _560
REMARK  213  A    between atoms: _560  and  _561
REMARK  214  A    between atoms: _563  and  _565
REMARK  215  A    between atoms: _565  and  _566
REMARK  216  A    between atoms: _565  and  _568
REMARK  217  A    between atoms: _568  and  _569
REMARK  218  A    between atoms: _572  and  _574
REMARK  219  A    between atoms: _574  and  _575
REMARK  220  A    between atoms: _574  and  _577
REMARK  221  A    between atoms: _577  and  _578
REMARK  222  A    between atoms: _578  and  _579
REMARK  223  A    between atoms: _579  and  _580
REMARK  224  A    between atoms: _580  and  _581
REMARK  225  A    between atoms: _585  and  _587
REMARK  226  A    between atoms: _587  and  _588
REMARK  227  A    between atoms: _587  and  _590
REMARK  228  A    between atoms: _590  and  _591
REMARK  229  A    between atoms: _597  and  _599
REMARK  230  A    between atoms: _599  and  _600
REMARK  231  A    between atoms: _599  and  _602
REMARK  232  A    between atoms: _602  and  _603
REMARK  233  A    between atoms: _609  and  _611
REMARK  234  A    between atoms: _611  and  _612
REMARK  235  A    between atoms: _615  and  _617
REMARK  236  A    between atoms: _617  and  _618
REMARK  237  A    between atoms: _617  and  _620
REMARK  238  A    between atoms: _620  and  _621
REMARK  239  A    between atoms: _621  and  _622
REMARK  240  A    between atoms: _624  and  _626
REMARK  241  A    between atoms: _626  and  _627
REMARK  242  A    between atoms: _626  and  _629
REMARK  243  A    between atoms: _629  and  _630
REMARK  244  A    between atoms: _630  and  _631
REMARK  245  A    between atoms: _631  and  _632
REMARK  246  A    between atoms: _632  and  _633
REMARK  247  A    between atoms: _637  and  _639
REMARK  248  A    between atoms: _639  and  _640
REMARK  249  A    between atoms: _639  and  _642
REMARK  250  A    between atoms: _642  and  _643
REMARK  251  A    between atoms: _648  and  _649
REMARK  252  A    between atoms: _651  and  _653
REMARK  253  A    between atoms: _653  and  _654
REMARK  254  A    between atoms: _653  and  _656
REMARK  255  A    between atoms: _656  and  _657
REMARK  256  A    between atoms: _662  and  _664
REMARK  257  A    between atoms: _664  and  _665
REMARK  258  A    between atoms: _664  and  _667
REMARK  259  A    between atoms: _667  and  _668
REMARK  260  A    between atoms: _671  and  _673
REMARK  261  A    between atoms: _673  and  _674
REMARK  262  A    between atoms: _677  and  _679
REMARK  263  A    between atoms: _679  and  _680
REMARK  264  A    between atoms: _679  and  _682
REMARK  265  A    between atoms: _682  and  _683
REMARK  266  A    between atoms: _686  and  _688
REMARK  267  A    between atoms: _688  and  _689
REMARK  268  A    between atoms: _688  and  _691
REMARK  269  A    between atoms: _694  and  _696
REMARK  270  A    between atoms: _696  and  _697
REMARK  271  A    between atoms: _696  and  _699
REMARK  272  A    between atoms: _699  and  _700
REMARK  273  A    between atoms: _700  and  _701
REMARK  274  A    between atoms: _704  and  _706
REMARK  275  A    between atoms: _706  and  _707
REMARK  276  A    between atoms: _706  and  _709
REMARK  277  A    between atoms: _709  and  _710
REMARK  278  A    between atoms: _715  and  _716
REMARK  279  A    between atoms: _718  and  _720
REMARK  280  A    between atoms: _720  and  _721
REMARK  281  A    between atoms: _720  and  _723
REMARK  282  A    between atoms: _723  and  _724
REMARK  283  A    between atoms: _724  and  _725
REMARK  284  A    between atoms: _725  and  _726
REMARK  285  A    between atoms: _735  and  _737
REMARK  286  A    between atoms: _737  and  _738
REMARK  287  A    between atoms: _737  and  _740
REMARK  288  A    between atoms: _740  and  _741
REMARK  289  A    between atoms: _746  and  _747
REMARK  290  A    between atoms: _749  and  _751
REMARK  291  A    between atoms: _751  and  _752
REMARK  292  A    between atoms: _751  and  _754
REMARK  293  A    between atoms: _754  and  _755
REMARK  294  A    between atoms: _758  and  _760
REMARK  295  A    between atoms: _760  and  _761
REMARK  296  A    between atoms: _760  and  _763
REMARK  297  A    between atoms: _763  and  _764
REMARK  298  A    between atoms: _766  and  _768
REMARK  299  A    between atoms: _768  and  _769
REMARK  300  A    between atoms: _768  and  _771
REMARK  301  A    between atoms: _771  and  _772
REMARK  302  A    between atoms: _778  and  _780
REMARK  303  A    between atoms: _780  and  _781
REMARK  304  A    between atoms: _780  and  _783
REMARK  305  A    between atoms: _783  and  _784
REMARK  306  A    between atoms: _784  and  _785
REMARK                            x       y       z     vdW  Elec       q    Type
REMARK                         _______ _______ _______ _____ _____    ______ ____
ROOT
ATOM      1  O   HOH     1      28.694  -5.461   5.506  0.00  0.00    +0.000 OA
ENDROOT
TORSDOF 0
REMARK  Name = ../refined-set-2016/4ca7/4ca7_pocket.pdb
REMARK  306 active torsions:
REMARK  status: ('A' for Active; 'I' for Inactive)
REMARK    1  A    between atoms: _1  and  _3
REMARK    2  A    between atoms: _3  and  _4
REMARK    3  A    between atoms: _3  and  _6
REMARK    4  A    between atoms: _6  and  _7
REMARK    5  A    between atoms: _7  and  _8
REMARK    6  A    between atoms: _8  and  _9
REMARK    7  A    between atoms: _9  and  _10
REMARK    8  A    between atoms: _14  and  _16
REMARK    9  A    between atoms: _16  and  _17
REMARK   10  A    between atoms: _16  and  _19
REMARK   11  A    between atoms: _19  and  _20
REMARK   12  A    between atoms: _20  and  _21
REMARK   13  A    between atoms: _24  and  _26
REMARK   14  A    between atoms: _26  and  _27
REMARK   15  A    between atoms: _26  and  _29
REMARK   16  A    between atoms: _29  and  _30
REMARK   17  A    between atoms: _30  and  _31
REMARK   18  A    between atoms: _34  and  _36
REMARK   19  A    between atoms: _36  and  _37
REMARK   20  A    between atoms: _36  and  _39
REMARK   21  A    between atoms: _39  and  _40
REMARK   22  A    between atoms: _45  and  _47
REMARK   23  A    between atoms: _47  and  _48
REMARK   24  A    between atoms: _47  and  _50
REMARK   25  A    between atoms: _50  and  _51
REMARK   26  A    between atoms: _61  and  _63
REMARK   27  A    between atoms: _63  and  _64
REMARK   28  A    between atoms: _63  and  _66
REMARK   29  A    between atoms: _66  and  _67
REMARK   30  A    between atoms: _67  and  _68
REMARK   31  A    between atoms: _73  and  _75
REMARK   32  A    between atoms: _75  and  _76
REMARK   33  A    between atoms: _75  and  _78
REMARK   34  A    between atoms: _78  and  _79
REMARK   35  A    between atoms: _79  and  _80
REMARK   36  A    between atoms: _85  and  _87
REMARK   37  A    between atoms: _87  and  _88
REMARK   38  A    between atoms: _87  and  _90
REMARK   39  A    between atoms: _90  and  _91
REMARK   40  A    between atoms: _93  and  _95
REMARK   41  A    between atoms: _95  and  _96
REMARK   42  A    between atoms: _95  and  _98
REMARK   43  A    between atoms: _101  and  _103
REMARK   44  A    between atoms: _103  and  _104
REMARK   45  A    between atoms: _103  and  _106
REMARK   46  A    between atoms: _108  and  _110
REMARK   47  A    between atoms: _110  and  _111
REMARK   48  A    between atoms: _110  and  _113
REMARK   49  A    between atoms: _113  and  _114
REMARK   50  A    between atoms: _119  and  _121
REMARK   51  A    between atoms: _121  and  _122
REMARK   52  A    between atoms: _125  and  _127
REMARK   53  A    between atoms: _127  and  _128
REMARK   54  A    between atoms: _127  and  _130
REMARK   55  A    between atoms: _130  and  _131
REMARK   56  A    between atoms: _133  and  _135
REMARK   57  A    between atoms: _135  and  _136
REMARK   58  A    between atoms: _139  and  _141
REMARK   59  A    between atoms: _141  and  _142
REMARK   60  A    between atoms: _141  and  _144
REMARK   61  A    between atoms: _144  and  _145
REMARK   62  A    between atoms: _155  and  _157
REMARK   63  A    between atoms: _157  and  _158
REMARK   64  A    between atoms: _157  and  _160
REMARK   65  A    between atoms: _160  and  _161
REMARK   66  A    between atoms: _164  and  _166
REMARK   67  A    between atoms: _166  and  _167
REMARK   68  A    between atoms: _166  and  _169
REMARK   69  A    between atoms: _169  and  _170
REMARK   70  A    between atoms: _175  and  _176
REMARK   71  A    between atoms: _178  and  _180
REMARK   72  A    between atoms: _180  and  _181
REMARK   73  A    between atoms: _180  and  _183
REMARK   74  A    between atoms: _183  and  _184
REMARK   75  A    between atoms: _184  and  _185
REMARK   76  A    between atoms: _185  and  _186
REMARK   77  A    between atoms: _195  and  _197
REMARK   78  A    between atoms: _197  and  _198
REMARK   79  A    between atoms: _197  and  _200
REMARK   80  A    between atoms: _200  and  _201
REMARK   81  A    between atoms: _204  and  _206
REMARK   82  A    between atoms: _206  and  _207
REMARK   83  A    between atoms: _206  and  _209
REMARK   84  A    between atoms: _209  and  _210
REMARK   85  A    between atoms: _210  and  _211
REMARK   86  A    between atoms: _211  and  _212
REMARK   87  A    between atoms: _212  and  _213
REMARK   88  A    between atoms: _217  and  _219
REMARK   89  A    between atoms: _219  and  _220
REMARK   90  A    between atoms: _219  and  _222
REMARK   91  A    between atoms: _222  and  _223
REMARK   92  A    between atoms: _223  and  _224
REMARK   93  A    between atoms: _229  and  _231
REMARK   94  A    between atoms: _231  and  _232
REMARK   95  A    between atoms: _231  and  _234
REMARK   96  A    between atoms: _234  and  _235
REMARK   97  A    between atoms: _235  and  _236
REMARK   98  A    between atoms: _236  and  _237
REMARK   99  A    between atoms: _246  and  _248
REMARK  100  A    between atoms: _248  and  _249
REMARK  101  A    between atoms: _248  and  _251
REMARK  102  A    between atoms: _251  and  _252
REMARK  103  A    between atoms: _252  and  _253
REMARK  104  A    between atoms: _258  and  _260
REMARK  105  A    between atoms: _260  and  _261
REMARK  106  A    between atoms: _260  and  _263
REMARK  107  A    between atoms: _263  and  _264
REMARK  108  A    between atoms: _267  and  _269
REMARK  109  A    between atoms: _269  and  _270
REMARK  110  A    between atoms: _269  and  _272
REMARK  111  A    between atoms: _272  and  _273
REMARK  112  A    between atoms: _273  and  _274
REMARK  113  A    between atoms: _279  and  _281
REMARK  114  A    between atoms: _281  and  _282
REMARK  115  A    between atoms: _281  and  _284
REMARK  116  A    between atoms: _284  and  _285
REMARK  117  A    between atoms: _288  and  _290
REMARK  118  A    between atoms: _290  and  _291
REMARK  119  A    between atoms: _290  and  _293
REMARK  120  A    between atoms: _293  and  _294
REMARK  121  A    between atoms: _300  and  _302
REMARK  122  A    between atoms: _302  and  _303
REMARK  123  A    between atoms: _302  and  _305
REMARK  124  A    between atoms: _305  and  _306
REMARK  125  A    between atoms: _309  and  _311
REMARK  126  A    between atoms: _311  and  _312
REMARK  127  A    between atoms: _311  and  _314
REMARK  128  A    between atoms: _317  and  _319
REMARK  129  A    between atoms: _319  and  _320
REMARK  130  A    between atoms: _319  and  _322
REMARK  131  A    between atoms: _322  and  _323
REMARK  132  A    between atoms: _328  and  _330
REMARK  133  A    between atoms: _341  and  _344
REMARK  134  A    between atoms: _344  and  _345
REMARK  135  A    between atoms: _345  and  _346
REMARK  136  A    between atoms: _351  and  _354
REMARK  137  A    between atoms: _354  and  _355
REMARK  138  A    between atoms: _365  and  _366
REMARK  139  A    between atoms: _374  and  _376
REMARK  140  A    between atoms: _376  and  _377
REMARK  141  A    between atoms: _376  and  _379
REMARK  142  A    between atoms: _379  and  _380
REMARK  143  A    between atoms: _383  and  _385
REMARK  144  A    between atoms: _385  and  _386
REMARK  145  A    between atoms: _385  and  _388
REMARK  146  A    between atoms: _388  and  _389
REMARK  147  A    between atoms: _394  and  _395
REMARK  148  A    between atoms: _397  and  _399
REMARK  149  A    between atoms: _399  and  _400
REMARK  150  A    between atoms: _399  and  _402
REMARK  151  A    between atoms: _402  and  _403
REMARK  152  A    between atoms: _409  and  _411
REMARK  153  A    between atoms: _411  and  _412
REMARK  154  A    between atoms: _411  and  _414
REMARK  155  A    between atoms: _414  and  _415
REMARK  156  A    between atoms: _420  and  _421
REMARK  157  A    between atoms: _423  and  _425
REMARK  158  A    between atoms: _425  and  _426
REMARK  159  A    between atoms: _425  and  _428
REMARK  160  A    between atoms: _428  and  _429
REMARK  161  A    between atoms: _429  and  _430
REMARK  162  A    between atoms: _430  and  _431
REMARK  163  A    between atoms: _440  and  _442
REMARK  164  A    between atoms: _442  and  _443
REMARK  165  A    between atoms: _442  and  _445
REMARK  166  A    between atoms: _445  and  _446
REMARK  167  A    between atoms: _449  and  _451
REMARK  168  A    between atoms: _451  and  _452
REMARK  169  A    between atoms: _454  and  _456
REMARK  170  A    between atoms: _456  and  _457
REMARK  171  A    between atoms: _456  and  _459
REMARK  172  A    between atoms: _459  and  _460
REMARK  173  A    between atoms: _466  and  _467
REMARK  174  A    between atoms: _472  and  _474
REMARK  175  A    between atoms: _474  and  _475
REMARK  176  A    between atoms: _477  and  _479
REMARK  177  A    between atoms: _479  and  _480
REMARK  178  A    between atoms: _479  and  _482
REMARK  179  A    between atoms: _482  and  _483
REMARK  180  A    between atoms: _489  and  _491
REMARK  181  A    between atoms: _491  and  _492
REMARK  182  A    between atoms: _491  and  _494
REMARK  183  A    between atoms: _494  and  _495
REMARK  184  A    between atoms: _500  and  _502
REMARK  185  A    between atoms: _502  and  _503
REMARK  186  A    between atoms: _502  and  _505
REMARK  187  A    between atoms: _505  and  _506
REMARK  188  A    between atoms: _506  and  _507
REMARK  189  A    between atoms: _507  and  _508
REMARK  190  A    between atoms: _508  and  ZN_790
REMARK  191  A    between atoms: _510  and  _512
REMARK  192  A    between atoms: _512  and  _513
REMARK  193  A    between atoms: _516  and  _518
REMARK  194  A    between atoms: _518  and  _519
REMARK  195  A    between atoms: _521  and  _523
REMARK  196  A    between atoms: _523  and  _524
REMARK  197  A    between atoms: _523  and  _526
REMARK  198  A    between atoms: _526  and  _527
REMARK  199  A    between atoms: _530  and  _532
REMARK  200  A    between atoms: _532  and  _533
REMARK  201  A    between atoms: _532  and  _535
REMARK  202  A    between atoms: _538  and  _540
REMARK  203  A    between atoms: _540  and  _541
REMARK  204  A    between atoms: _540  and  _543
REMARK  205  A    between atoms: _543  and  _544
REMARK  206  A    between atoms: _546  and  _548
REMARK  207  A    between atoms: _548  and  _549
REMARK  208  A    between atoms: _548  and  _551
REMARK  209  A    between atoms: _551  and  _552
REMARK  210  A    between atoms: _555  and  _557
REMARK  211  A    between atoms: _557  and  _558
REMARK  212  A    between atoms: _557  and  _560
REMARK  213  A    between atoms: _560  and  _561
REMARK  214  A    between atoms: _563  and  _565
REMARK  215  A    between atoms: _565  and  _566
REMARK  216  A    between atoms: _565  and  _568
REMARK  217  A    between atoms: _568  and  _569
REMARK  218  A    between atoms: _572  and  _574
REMARK  219  A    between atoms: _574  and  _575
REMARK  220  A    between atoms: _574  and  _577
REMARK  221  A    between atoms: _577  and  _578
REMARK  222  A    between atoms: _578  and  _579
REMARK  223  A    between atoms: _579  and  _580
REMARK  224  A    between atoms: _580  and  _581
REMARK  225  A    between atoms: _585  and  _587
REMARK  226  A    between atoms: _587  and  _588
REMARK  227  A    between atoms: _587  and  _590
REMARK  228  A    between atoms: _590  and  _591
REMARK  229  A    between atoms: _597  and  _599
REMARK  230  A    between atoms: _599  and  _600
REMARK  231  A    between atoms: _599  and  _602
REMARK  232  A    between atoms: _602  and  _603
REMARK  233  A    between atoms: _609  and  _611
REMARK  234  A    between atoms: _611  and  _612
REMARK  235  A    between atoms: _615  and  _617
REMARK  236  A    between atoms: _617  and  _618
REMARK  237  A    between atoms: _617  and  _620
REMARK  238  A    between atoms: _620  and  _621
REMARK  239  A    between atoms: _621  and  _622
REMARK  240  A    between atoms: _624  and  _626
REMARK  241  A    between atoms: _626  and  _627
REMARK  242  A    between atoms: _626  and  _629
REMARK  243  A    between atoms: _629  and  _630
REMARK  244  A    between atoms: _630  and  _631
REMARK  245  A    between atoms: _631  and  _632
REMARK  246  A    between atoms: _632  and  _633
REMARK  247  A    between atoms: _637  and  _639
REMARK  248  A    between atoms: _639  and  _640
REMARK  249  A    between atoms: _639  and  _642
REMARK  250  A    between atoms: _642  and  _643
REMARK  251  A    between atoms: _648  and  _649
REMARK  252  A    between atoms: _651  and  _653
REMARK  253  A    between atoms: _653  and  _654
REMARK  254  A    between atoms: _653  and  _656
REMARK  255  A    between atoms: _656  and  _657
REMARK  256  A    between atoms: _662  and  _664
REMARK  257  A    between atoms: _664  and  _665
REMARK  258  A    between atoms: _664  and  _667
REMARK  259  A    between atoms: _667  and  _668
REMARK  260  A    between atoms: _671  and  _673
REMARK  261  A    between atoms: _673  and  _674
REMARK  262  A    between atoms: _677  and  _679
REMARK  263  A    between atoms: _679  and  _680
REMARK  264  A    between atoms: _679  and  _682
REMARK  265  A    between atoms: _682  and  _683
REMARK  266  A    between atoms: _686  and  _688
REMARK  267  A    between atoms: _688  and  _689
REMARK  268  A    between atoms: _688  and  _691
REMARK  269  A    between atoms: _694  and  _696
REMARK  270  A    between atoms: _696  and  _697
REMARK  271  A    between atoms: _696  and  _699
REMARK  272  A    between atoms: _699  and  _700
REMARK  273  A    between atoms: _700  and  _701
REMARK  274  A    between atoms: _704  and  _706
REMARK  275  A    between atoms: _706  and  _707
REMARK  276  A    between atoms: _706  and  _709
REMARK  277  A    between atoms: _709  and  _710
REMARK  278  A    between atoms: _715  and  _716
REMARK  279  A    between atoms: _718  and  _720
REMARK  280  A    between atoms: _720  and  _721
REMARK  281  A    between atoms: _720  and  _723
REMARK  282  A    between atoms: _723  and  _724
REMARK  283  A    between atoms: _724  and  _725
REMARK  284  A    between atoms: _725  and  _726
REMARK  285  A    between atoms: _735  and  _737
REMARK  286  A    between atoms: _737  and  _738
REMARK  287  A    between atoms: _737  and  _740
REMARK  288  A    between atoms: _740  and  _741
REMARK  289  A    between atoms: _746  and  _747
REMARK  290  A    between atoms: _749  and  _751
REMARK  291  A    between atoms: _751  and  _752
REMARK  292  A    between atoms: _751  and  _754
REMARK  293  A    between atoms: _754  and  _755
REMARK  294  A    between atoms: _758  and  _760
REMARK  295  A    between atoms: _760  and  _761
REMARK  296  A    between atoms: _760  and  _763
REMARK  297  A    between atoms: _763  and  _764
REMARK  298  A    between atoms: _766  and  _768
REMARK  299  A    between atoms: _768  and  _769
REMARK  300  A    between atoms: _768  and  _771
REMARK  301  A    between atoms: _771  and  _772
REMARK  302  A    between atoms: _778  and  _780
REMARK  303  A    between atoms: _780  and  _781
REMARK  304  A    between atoms: _780  and  _783
REMARK  305  A    between atoms: _783  and  _784
REMARK  306  A    between atoms: _784  and  _785
REMARK                            x       y       z     vdW  Elec       q    Type
REMARK                         _______ _______ _______ _____ _____    ______ ____
ROOT
ATOM      1  O   HOH     1      28.046  -8.189   4.367  0.00  0.00    +0.000 OA
ENDROOT
TORSDOF 0
