REMARK  Name = ../refined-set-2016/3d8y/3d8y_pocket.pdb
REMARK  112 active torsions:
REMARK  status: ('A' for Active; 'I' for Inactive)
REMARK    1  A    between atoms: _1  and  _3
REMARK    2  A    between atoms: _3  and  _4
REMARK    3  A    between atoms: _3  and  _6
REMARK    4  A    between atoms: _6  and  _7
REMARK    5  A    between atoms: _7  and  _8
REMARK    6  A    between atoms: _8  and  _9
REMARK    7  A    between atoms: _9  and  _10
REMARK    8  A    between atoms: _14  and  _16
REMARK    9  A    between atoms: _16  and  _17
REMARK   10  A    between atoms: _16  and  _19
REMARK   11  A    between atoms: _19  and  _20
REMARK   12  A    between atoms: _26  and  _28
REMARK   13  A    between atoms: _28  and  _29
REMARK   14  A    between atoms: _28  and  _31
REMARK   15  A    between atoms: _31  and  _32
REMARK   16  A    between atoms: _32  and  _33
REMARK   17  A    between atoms: _38  and  _40
REMARK   18  A    between atoms: _40  and  _41
REMARK   19  A    between atoms: _40  and  _43
REMARK   20  A    between atoms: _43  and  _44
REMARK   21  A    between atoms: _49  and  _51
REMARK   22  A    between atoms: _51  and  _52
REMARK   23  A    between atoms: _51  and  _54
REMARK   24  A    between atoms: _54  and  _55
REMARK   25  A    between atoms: _55  and  _56
REMARK   26  A    between atoms: _58  and  _60
REMARK   27  A    between atoms: _60  and  _61
REMARK   28  A    between atoms: _60  and  _63
REMARK   29  A    between atoms: _63  and  _64
REMARK   30  A    between atoms: _67  and  _69
REMARK   31  A    between atoms: _69  and  _70
REMARK   32  A    between atoms: _69  and  _72
REMARK   33  A    between atoms: _72  and  _73
REMARK   34  A    between atoms: _73  and  _74
REMARK   35  A    between atoms: _74  and  _75
REMARK   36  A    between atoms: _84  and  _86
REMARK   37  A    between atoms: _86  and  _87
REMARK   38  A    between atoms: _86  and  _89
REMARK   39  A    between atoms: _89  and  _90
REMARK   40  A    between atoms: _90  and  _91
REMARK   41  A    between atoms: _91  and  _92
REMARK   42  A    between atoms: _92  and  _93
REMARK   43  A    between atoms: _98  and  _99
REMARK   44  A    between atoms: _104  and  _106
REMARK   45  A    between atoms: _106  and  _107
REMARK   46  A    between atoms: _106  and  _109
REMARK   47  A    between atoms: _112  and  _114
REMARK   48  A    between atoms: _114  and  _115
REMARK   49  A    between atoms: _114  and  _117
REMARK   50  A    between atoms: _117  and  _118
REMARK   51  A    between atoms: _123  and  _125
REMARK   52  A    between atoms: _125  and  _126
REMARK   53  A    between atoms: _125  and  _128
REMARK   54  A    between atoms: _128  and  _129
REMARK   55  A    between atoms: _132  and  _134
REMARK   56  A    between atoms: _134  and  _135
REMARK   57  A    between atoms: _134  and  _137
REMARK   58  A    between atoms: _137  and  _138
REMARK   59  A    between atoms: _144  and  _146
REMARK   60  A    between atoms: _146  and  _147
REMARK   61  A    between atoms: _146  and  _149
REMARK   62  A    between atoms: _149  and  _150
REMARK   63  A    between atoms: _150  and  _151
REMARK   64  A    between atoms: _151  and  _152
REMARK   65  A    between atoms: _152  and  _153
REMARK   66  A    between atoms: _157  and  _159
REMARK   67  A    between atoms: _159  and  _160
REMARK   68  A    between atoms: _159  and  _162
REMARK   69  A    between atoms: _162  and  _163
REMARK   70  A    between atoms: _166  and  _168
REMARK   71  A    between atoms: _168  and  _169
REMARK   72  A    between atoms: _168  and  _171
REMARK   73  A    between atoms: _171  and  _172
REMARK   74  A    between atoms: _175  and  _177
REMARK   75  A    between atoms: _177  and  _178
REMARK   76  A    between atoms: _177  and  _180
REMARK   77  A    between atoms: _180  and  _181
REMARK   78  A    between atoms: _184  and  _186
REMARK   79  A    between atoms: _186  and  _187
REMARK   80  A    between atoms: _186  and  _189
REMARK   81  A    between atoms: _191  and  _193
REMARK   82  A    between atoms: _193  and  _194
REMARK   83  A    between atoms: _193  and  _196
REMARK   84  A    between atoms: _196  and  _197
REMARK   85  A    between atoms: _197  and  _198
REMARK   86  A    between atoms: _198  and  _199
REMARK   87  A    between atoms: _199  and  _200
REMARK   88  A    between atoms: _204  and  _206
REMARK   89  A    between atoms: _206  and  _207
REMARK   90  A    between atoms: _206  and  _209
REMARK   91  A    between atoms: _209  and  _210
REMARK   92  A    between atoms: _213  and  _215
REMARK   93  A    between atoms: _215  and  _216
REMARK   94  A    between atoms: _215  and  _218
REMARK   95  A    between atoms: _218  and  _219
REMARK   96  A    between atoms: _224  and  _226
REMARK   97  A    between atoms: _226  and  _227
REMARK   98  A    between atoms: _226  and  _229
REMARK   99  A    between atoms: _229  and  _230
REMARK  100  A    between atoms: _236  and  _238
REMARK  101  A    between atoms: _238  and  _239
REMARK  102  A    between atoms: _238  and  _241
REMARK  103  A    between atoms: _241  and  _242
REMARK  104  A    between atoms: _245  and  _247
REMARK  105  A    between atoms: _247  and  _248
REMARK  106  A    between atoms: _251  and  _253
REMARK  107  A    between atoms: _253  and  _254
REMARK  108  A    between atoms: _253  and  _256
REMARK  109  A    between atoms: _256  and  _257
REMARK  110  A    between atoms: _259  and  _261
REMARK  111  A    between atoms: _261  and  _262
REMARK  112  A    between atoms: _261  and  _264
REMARK                            x       y       z     vdW  Elec       q    Type
REMARK                         _______ _______ _______ _____ _____    ______ ____
ROOT
ATOM      1  C   LYS A   1      32.612   9.004  10.666  0.00  0.00    +0.238 C 
ATOM      2  N   PHE A   2      31.858   8.726  11.731  0.00  0.00    -0.298 N 
ATOM      3  H   PHE A   2      31.758   9.433  12.487  0.00  0.00    +0.150 HD
ATOM      4  O   LYS A   1      32.819   8.194   9.761  0.00  0.00    -0.274 OA
ENDROOT
BRANCH   1   5
ATOM      5  CA  LYS A   1      33.196  10.417  10.585  0.00  0.00    +0.145 C 
BRANCH   5   6
ATOM      6  N   LYS A   1      32.197  11.398  11.015  0.00  0.00    -0.238 NA
ATOM      7  H   LYS A   1      32.390  11.991  11.847  0.00  0.00    +0.142 HD
ENDBRANCH   5   6
BRANCH   5   8
ATOM      8  CB  LYS A   1      34.467  10.524  11.425  0.00  0.00    +0.026 C 
BRANCH   8   9
ATOM      9  CG  LYS A   1      35.615   9.654  10.915  0.00  0.00    -0.000 C 
BRANCH   9  10
ATOM     10  CD  LYS A   1      36.832   9.787  11.796  0.00  0.00    -0.024 C 
BRANCH  10  11
ATOM     11  CE  LYS A   1      37.911   8.817  11.365  0.00  0.00    -0.086 C 
BRANCH  11  12
ATOM     12  NZ  LYS A   1      39.226   9.135  11.986  0.00  0.00    +0.380 N 
ATOM     13  HZ1 LYS A   1      39.140   9.087  13.021  0.00  0.00    -0.089 HD
ATOM     14  HZ2 LYS A   1      39.518  10.093  11.705  0.00  0.00    -0.089 HD
ATOM     15  HZ3 LYS A   1      39.936   8.446  11.664  0.00  0.00    -0.089 HD
ENDBRANCH  11  12
ENDBRANCH  10  11
ENDBRANCH   9  10
ENDBRANCH   8   9
ENDBRANCH   5   8
ENDBRANCH   1   5
BRANCH   2  16
ATOM     16  CA  PHE A   2      31.170   7.441  11.849  0.00  0.00    +0.141 C 
BRANCH  16  17
ATOM     17  C   PHE A   2      30.210   7.203  10.675  0.00  0.00    +0.227 C 
ATOM     18  O   PHE A   2      30.210   6.130  10.076  0.00  0.00    -0.286 OA
ENDBRANCH  16  17
BRANCH  16  19
ATOM     19  CB  PHE A   2      30.418   7.299  13.187  0.00  0.00    +0.054 C 
BRANCH  19  20
ATOM     20  CG  PHE A   2      29.679   6.001  13.297  0.00  0.00    -0.020 A 
ATOM     21  CD2 PHE A   2      30.290   4.895  13.871  0.00  0.00    -0.004 A 
ATOM     22  CE2 PHE A   2      29.620   3.678  13.952  0.00  0.00    -0.000 A 
ATOM     23  CZ  PHE A   2      28.334   3.553  13.419  0.00  0.00    -0.000 A 
ATOM     24  CE1 PHE A   2      27.723   4.650  12.808  0.00  0.00    -0.000 A 
ATOM     25  CD1 PHE A   2      28.386   5.869  12.772  0.00  0.00    -0.004 A 
ENDBRANCH  19  20
ENDBRANCH  16  19
ENDBRANCH   2  16
TORSDOF 11
REMARK  Name = ../refined-set-2016/3d8y/3d8y_pocket.pdb
REMARK  112 active torsions:
REMARK  status: ('A' for Active; 'I' for Inactive)
REMARK    1  A    between atoms: _1  and  _3
REMARK    2  A    between atoms: _3  and  _4
REMARK    3  A    between atoms: _3  and  _6
REMARK    4  A    between atoms: _6  and  _7
REMARK    5  A    between atoms: _7  and  _8
REMARK    6  A    between atoms: _8  and  _9
REMARK    7  A    between atoms: _9  and  _10
REMARK    8  A    between atoms: _14  and  _16
REMARK    9  A    between atoms: _16  and  _17
REMARK   10  A    between atoms: _16  and  _19
REMARK   11  A    between atoms: _19  and  _20
REMARK   12  A    between atoms: _26  and  _28
REMARK   13  A    between atoms: _28  and  _29
REMARK   14  A    between atoms: _28  and  _31
REMARK   15  A    between atoms: _31  and  _32
REMARK   16  A    between atoms: _32  and  _33
REMARK   17  A    between atoms: _38  and  _40
REMARK   18  A    between atoms: _40  and  _41
REMARK   19  A    between atoms: _40  and  _43
REMARK   20  A    between atoms: _43  and  _44
REMARK   21  A    between atoms: _49  and  _51
REMARK   22  A    between atoms: _51  and  _52
REMARK   23  A    between atoms: _51  and  _54
REMARK   24  A    between atoms: _54  and  _55
REMARK   25  A    between atoms: _55  and  _56
REMARK   26  A    between atoms: _58  and  _60
REMARK   27  A    between atoms: _60  and  _61
REMARK   28  A    between atoms: _60  and  _63
REMARK   29  A    between atoms: _63  and  _64
REMARK   30  A    between atoms: _67  and  _69
REMARK   31  A    between atoms: _69  and  _70
REMARK   32  A    between atoms: _69  and  _72
REMARK   33  A    between atoms: _72  and  _73
REMARK   34  A    between atoms: _73  and  _74
REMARK   35  A    between atoms: _74  and  _75
REMARK   36  A    between atoms: _84  and  _86
REMARK   37  A    between atoms: _86  and  _87
REMARK   38  A    between atoms: _86  and  _89
REMARK   39  A    between atoms: _89  and  _90
REMARK   40  A    between atoms: _90  and  _91
REMARK   41  A    between atoms: _91  and  _92
REMARK   42  A    between atoms: _92  and  _93
REMARK   43  A    between atoms: _98  and  _99
REMARK   44  A    between atoms: _104  and  _106
REMARK   45  A    between atoms: _106  and  _107
REMARK   46  A    between atoms: _106  and  _109
REMARK   47  A    between atoms: _112  and  _114
REMARK   48  A    between atoms: _114  and  _115
REMARK   49  A    between atoms: _114  and  _117
REMARK   50  A    between atoms: _117  and  _118
REMARK   51  A    between atoms: _123  and  _125
REMARK   52  A    between atoms: _125  and  _126
REMARK   53  A    between atoms: _125  and  _128
REMARK   54  A    between atoms: _128  and  _129
REMARK   55  A    between atoms: _132  and  _134
REMARK   56  A    between atoms: _134  and  _135
REMARK   57  A    between atoms: _134  and  _137
REMARK   58  A    between atoms: _137  and  _138
REMARK   59  A    between atoms: _144  and  _146
REMARK   60  A    between atoms: _146  and  _147
REMARK   61  A    between atoms: _146  and  _149
REMARK   62  A    between atoms: _149  and  _150
REMARK   63  A    between atoms: _150  and  _151
REMARK   64  A    between atoms: _151  and  _152
REMARK   65  A    between atoms: _152  and  _153
REMARK   66  A    between atoms: _157  and  _159
REMARK   67  A    between atoms: _159  and  _160
REMARK   68  A    between atoms: _159  and  _162
REMARK   69  A    between atoms: _162  and  _163
REMARK   70  A    between atoms: _166  and  _168
REMARK   71  A    between atoms: _168  and  _169
REMARK   72  A    between atoms: _168  and  _171
REMARK   73  A    between atoms: _171  and  _172
REMARK   74  A    between atoms: _175  and  _177
REMARK   75  A    between atoms: _177  and  _178
REMARK   76  A    between atoms: _177  and  _180
REMARK   77  A    between atoms: _180  and  _181
REMARK   78  A    between atoms: _184  and  _186
REMARK   79  A    between atoms: _186  and  _187
REMARK   80  A    between atoms: _186  and  _189
REMARK   81  A    between atoms: _191  and  _193
REMARK   82  A    between atoms: _193  and  _194
REMARK   83  A    between atoms: _193  and  _196
REMARK   84  A    between atoms: _196  and  _197
REMARK   85  A    between atoms: _197  and  _198
REMARK   86  A    between atoms: _198  and  _199
REMARK   87  A    between atoms: _199  and  _200
REMARK   88  A    between atoms: _204  and  _206
REMARK   89  A    between atoms: _206  and  _207
REMARK   90  A    between atoms: _206  and  _209
REMARK   91  A    between atoms: _209  and  _210
REMARK   92  A    between atoms: _213  and  _215
REMARK   93  A    between atoms: _215  and  _216
REMARK   94  A    between atoms: _215  and  _218
REMARK   95  A    between atoms: _218  and  _219
REMARK   96  A    between atoms: _224  and  _226
REMARK   97  A    between atoms: _226  and  _227
REMARK   98  A    between atoms: _226  and  _229
REMARK   99  A    between atoms: _229  and  _230
REMARK  100  A    between atoms: _236  and  _238
REMARK  101  A    between atoms: _238  and  _239
REMARK  102  A    between atoms: _238  and  _241
REMARK  103  A    between atoms: _241  and  _242
REMARK  104  A    between atoms: _245  and  _247
REMARK  105  A    between atoms: _247  and  _248
REMARK  106  A    between atoms: _251  and  _253
REMARK  107  A    between atoms: _253  and  _254
REMARK  108  A    between atoms: _253  and  _256
REMARK  109  A    between atoms: _256  and  _257
REMARK  110  A    between atoms: _259  and  _261
REMARK  111  A    between atoms: _261  and  _262
REMARK  112  A    between atoms: _261  and  _264
REMARK                            x       y       z     vdW  Elec       q    Type
REMARK                         _______ _______ _______ _____ _____    ______ ____
ROOT
ATOM      1  C   GLN A   1      32.110   4.071   7.529  0.00  0.00    +0.238 C 
ATOM      2  N   HIS A   2      30.936   4.215   8.155  0.00  0.00    -0.298 N 
ATOM      3  H   HIS A   2      30.564   5.166   8.351  0.00  0.00    +0.150 HD
ATOM      4  O   GLN A   1      32.447   3.020   6.984  0.00  0.00    -0.274 OA
ENDROOT
BRANCH   1   5
ATOM      5  CA  GLN A   1      33.049   5.273   7.481  0.00  0.00    +0.145 C 
BRANCH   5   6
ATOM      6  N   GLN A   1      32.362   6.561   7.490  0.00  0.00    -0.238 NA
ATOM      7  H   GLN A   1      32.319   7.115   8.369  0.00  0.00    +0.142 HD
ENDBRANCH   5   6
BRANCH   5   8
ATOM      8  CB  GLN A   1      34.030   5.183   8.648  0.00  0.00    +0.036 C 
BRANCH   8   9
ATOM      9  CG  GLN A   1      35.161   6.211   8.616  0.00  0.00    +0.087 C 
BRANCH   9  10
ATOM     10  CD  GLN A   1      36.294   5.825   9.544  0.00  0.00    +0.219 C 
ATOM     11  NE2 GLN A   1      35.979   5.669  10.819  0.00  0.00    -0.329 N 
ATOM     12 HE21 GLN A   1      36.710   5.395  11.506  0.00  0.00    +0.145 HD
ATOM     13 HE22 GLN A   1      35.000   5.821  11.135  0.00  0.00    +0.145 HD
ATOM     14  OE1 GLN A   1      37.439   5.658   9.116  0.00  0.00    -0.275 OA
ENDBRANCH   9  10
ENDBRANCH   8   9
ENDBRANCH   5   8
ENDBRANCH   1   5
BRANCH   2  15
ATOM     15  CA  HIS A   2      30.172   3.027   8.565  0.00  0.00    +0.143 C 
BRANCH  15  16
ATOM     16  C   HIS A   2      28.693   2.946   8.198  0.00  0.00    +0.227 C 
ATOM     17  O   HIS A   2      28.069   1.898   8.410  0.00  0.00    -0.286 OA
ENDBRANCH  15  16
BRANCH  15  18
ATOM     18  CB  HIS A   2      30.323   2.790  10.086  0.00  0.00    +0.075 C 
BRANCH  18  19
ATOM     19  CG  HIS A   2      31.739   2.617  10.539  0.00  0.00    +0.082 A 
ATOM     20  CD2 HIS A   2      32.497   3.348  11.389  0.00  0.00    +0.115 A 
ATOM     21  NE2 HIS A   2      33.730   2.744  11.457  0.00  0.00    -0.221 NA
ATOM     22  CE1 HIS A   2      33.722   1.669  10.689  0.00  0.00    +0.199 A 
ATOM     23  ND1 HIS A   2      32.532   1.570  10.122  0.00  0.00    -0.227 NA
ENDBRANCH  18  19
ENDBRANCH  15  18
ENDBRANCH   2  15
TORSDOF 9
REMARK  Name = ../refined-set-2016/3d8y/3d8y_pocket.pdb
REMARK  112 active torsions:
REMARK  status: ('A' for Active; 'I' for Inactive)
REMARK    1  A    between atoms: _1  and  _3
REMARK    2  A    between atoms: _3  and  _4
REMARK    3  A    between atoms: _3  and  _6
REMARK    4  A    between atoms: _6  and  _7
REMARK    5  A    between atoms: _7  and  _8
REMARK    6  A    between atoms: _8  and  _9
REMARK    7  A    between atoms: _9  and  _10
REMARK    8  A    between atoms: _14  and  _16
REMARK    9  A    between atoms: _16  and  _17
REMARK   10  A    between atoms: _16  and  _19
REMARK   11  A    between atoms: _19  and  _20
REMARK   12  A    between atoms: _26  and  _28
REMARK   13  A    between atoms: _28  and  _29
REMARK   14  A    between atoms: _28  and  _31
REMARK   15  A    between atoms: _31  and  _32
REMARK   16  A    between atoms: _32  and  _33
REMARK   17  A    between atoms: _38  and  _40
REMARK   18  A    between atoms: _40  and  _41
REMARK   19  A    between atoms: _40  and  _43
REMARK   20  A    between atoms: _43  and  _44
REMARK   21  A    between atoms: _49  and  _51
REMARK   22  A    between atoms: _51  and  _52
REMARK   23  A    between atoms: _51  and  _54
REMARK   24  A    between atoms: _54  and  _55
REMARK   25  A    between atoms: _55  and  _56
REMARK   26  A    between atoms: _58  and  _60
REMARK   27  A    between atoms: _60  and  _61
REMARK   28  A    between atoms: _60  and  _63
REMARK   29  A    between atoms: _63  and  _64
REMARK   30  A    between atoms: _67  and  _69
REMARK   31  A    between atoms: _69  and  _70
REMARK   32  A    between atoms: _69  and  _72
REMARK   33  A    between atoms: _72  and  _73
REMARK   34  A    between atoms: _73  and  _74
REMARK   35  A    between atoms: _74  and  _75
REMARK   36  A    between atoms: _84  and  _86
REMARK   37  A    between atoms: _86  and  _87
REMARK   38  A    between atoms: _86  and  _89
REMARK   39  A    between atoms: _89  and  _90
REMARK   40  A    between atoms: _90  and  _91
REMARK   41  A    between atoms: _91  and  _92
REMARK   42  A    between atoms: _92  and  _93
REMARK   43  A    between atoms: _98  and  _99
REMARK   44  A    between atoms: _104  and  _106
REMARK   45  A    between atoms: _106  and  _107
REMARK   46  A    between atoms: _106  and  _109
REMARK   47  A    between atoms: _112  and  _114
REMARK   48  A    between atoms: _114  and  _115
REMARK   49  A    between atoms: _114  and  _117
REMARK   50  A    between atoms: _117  and  _118
REMARK   51  A    between atoms: _123  and  _125
REMARK   52  A    between atoms: _125  and  _126
REMARK   53  A    between atoms: _125  and  _128
REMARK   54  A    between atoms: _128  and  _129
REMARK   55  A    between atoms: _132  and  _134
REMARK   56  A    between atoms: _134  and  _135
REMARK   57  A    between atoms: _134  and  _137
REMARK   58  A    between atoms: _137  and  _138
REMARK   59  A    between atoms: _144  and  _146
REMARK   60  A    between atoms: _146  and  _147
REMARK   61  A    between atoms: _146  and  _149
REMARK   62  A    between atoms: _149  and  _150
REMARK   63  A    between atoms: _150  and  _151
REMARK   64  A    between atoms: _151  and  _152
REMARK   65  A    between atoms: _152  and  _153
REMARK   66  A    between atoms: _157  and  _159
REMARK   67  A    between atoms: _159  and  _160
REMARK   68  A    between atoms: _159  and  _162
REMARK   69  A    between atoms: _162  and  _163
REMARK   70  A    between atoms: _166  and  _168
REMARK   71  A    between atoms: _168  and  _169
REMARK   72  A    between atoms: _168  and  _171
REMARK   73  A    between atoms: _171  and  _172
REMARK   74  A    between atoms: _175  and  _177
REMARK   75  A    between atoms: _177  and  _178
REMARK   76  A    between atoms: _177  and  _180
REMARK   77  A    between atoms: _180  and  _181
REMARK   78  A    between atoms: _184  and  _186
REMARK   79  A    between atoms: _186  and  _187
REMARK   80  A    between atoms: _186  and  _189
REMARK   81  A    between atoms: _191  and  _193
REMARK   82  A    between atoms: _193  and  _194
REMARK   83  A    between atoms: _193  and  _196
REMARK   84  A    between atoms: _196  and  _197
REMARK   85  A    between atoms: _197  and  _198
REMARK   86  A    between atoms: _198  and  _199
REMARK   87  A    between atoms: _199  and  _200
REMARK   88  A    between atoms: _204  and  _206
REMARK   89  A    between atoms: _206  and  _207
REMARK   90  A    between atoms: _206  and  _209
REMARK   91  A    between atoms: _209  and  _210
REMARK   92  A    between atoms: _213  and  _215
REMARK   93  A    between atoms: _215  and  _216
REMARK   94  A    between atoms: _215  and  _218
REMARK   95  A    between atoms: _218  and  _219
REMARK   96  A    between atoms: _224  and  _226
REMARK   97  A    between atoms: _226  and  _227
REMARK   98  A    between atoms: _226  and  _229
REMARK   99  A    between atoms: _229  and  _230
REMARK  100  A    between atoms: _236  and  _238
REMARK  101  A    between atoms: _238  and  _239
REMARK  102  A    between atoms: _238  and  _241
REMARK  103  A    between atoms: _241  and  _242
REMARK  104  A    between atoms: _245  and  _247
REMARK  105  A    between atoms: _247  and  _248
REMARK  106  A    between atoms: _251  and  _253
REMARK  107  A    between atoms: _253  and  _254
REMARK  108  A    between atoms: _253  and  _256
REMARK  109  A    between atoms: _256  and  _257
REMARK  110  A    between atoms: _259  and  _261
REMARK  111  A    between atoms: _261  and  _262
REMARK  112  A    between atoms: _261  and  _264
REMARK                            x       y       z     vdW  Elec       q    Type
REMARK                         _______ _______ _______ _____ _____    ______ ____
ROOT
ATOM      1  CA  MET A   1      36.230   2.097   0.471  0.00  0.00    +0.134 C 
ENDROOT
BRANCH   1   2
ATOM      2  N   MET A   1      35.025   1.714  -0.266  0.00  0.00    -0.239 NA
ATOM      3  H   MET A   1      34.953   0.758  -0.668  0.00  0.00    +0.142 HD
ENDBRANCH   1   2
BRANCH   1   4
ATOM      4  C   MET A   1      36.893   3.309  -0.177  0.00  0.00    +0.224 C 
ATOM      5  O   MET A   1      37.412   4.194   0.508  0.00  0.00    -0.287 OA
ENDBRANCH   1   4
BRANCH   1   6
ATOM      6  CB  MET A   1      37.211   0.927   0.560  0.00  0.00    +0.037 C 
BRANCH   6   7
ATOM      7  CG  MET A   1      36.689  -0.259   1.376  0.00  0.00    +0.059 C 
BRANCH   7   8
ATOM      8  SD  MET A   1      36.342   0.170   3.091  0.00  0.00    -0.139 S 
ATOM      9  CE  MET A   1      38.009   0.412   3.712  0.00  0.00    +0.069 C 
ENDBRANCH   7   8
ENDBRANCH   6   7
ENDBRANCH   1   6
TORSDOF 5
REMARK  Name = ../refined-set-2016/3d8y/3d8y_pocket.pdb
REMARK  112 active torsions:
REMARK  status: ('A' for Active; 'I' for Inactive)
REMARK    1  A    between atoms: _1  and  _3
REMARK    2  A    between atoms: _3  and  _4
REMARK    3  A    between atoms: _3  and  _6
REMARK    4  A    between atoms: _6  and  _7
REMARK    5  A    between atoms: _7  and  _8
REMARK    6  A    between atoms: _8  and  _9
REMARK    7  A    between atoms: _9  and  _10
REMARK    8  A    between atoms: _14  and  _16
REMARK    9  A    between atoms: _16  and  _17
REMARK   10  A    between atoms: _16  and  _19
REMARK   11  A    between atoms: _19  and  _20
REMARK   12  A    between atoms: _26  and  _28
REMARK   13  A    between atoms: _28  and  _29
REMARK   14  A    between atoms: _28  and  _31
REMARK   15  A    between atoms: _31  and  _32
REMARK   16  A    between atoms: _32  and  _33
REMARK   17  A    between atoms: _38  and  _40
REMARK   18  A    between atoms: _40  and  _41
REMARK   19  A    between atoms: _40  and  _43
REMARK   20  A    between atoms: _43  and  _44
REMARK   21  A    between atoms: _49  and  _51
REMARK   22  A    between atoms: _51  and  _52
REMARK   23  A    between atoms: _51  and  _54
REMARK   24  A    between atoms: _54  and  _55
REMARK   25  A    between atoms: _55  and  _56
REMARK   26  A    between atoms: _58  and  _60
REMARK   27  A    between atoms: _60  and  _61
REMARK   28  A    between atoms: _60  and  _63
REMARK   29  A    between atoms: _63  and  _64
REMARK   30  A    between atoms: _67  and  _69
REMARK   31  A    between atoms: _69  and  _70
REMARK   32  A    between atoms: _69  and  _72
REMARK   33  A    between atoms: _72  and  _73
REMARK   34  A    between atoms: _73  and  _74
REMARK   35  A    between atoms: _74  and  _75
REMARK   36  A    between atoms: _84  and  _86
REMARK   37  A    between atoms: _86  and  _87
REMARK   38  A    between atoms: _86  and  _89
REMARK   39  A    between atoms: _89  and  _90
REMARK   40  A    between atoms: _90  and  _91
REMARK   41  A    between atoms: _91  and  _92
REMARK   42  A    between atoms: _92  and  _93
REMARK   43  A    between atoms: _98  and  _99
REMARK   44  A    between atoms: _104  and  _106
REMARK   45  A    between atoms: _106  and  _107
REMARK   46  A    between atoms: _106  and  _109
REMARK   47  A    between atoms: _112  and  _114
REMARK   48  A    between atoms: _114  and  _115
REMARK   49  A    between atoms: _114  and  _117
REMARK   50  A    between atoms: _117  and  _118
REMARK   51  A    between atoms: _123  and  _125
REMARK   52  A    between atoms: _125  and  _126
REMARK   53  A    between atoms: _125  and  _128
REMARK   54  A    between atoms: _128  and  _129
REMARK   55  A    between atoms: _132  and  _134
REMARK   56  A    between atoms: _134  and  _135
REMARK   57  A    between atoms: _134  and  _137
REMARK   58  A    between atoms: _137  and  _138
REMARK   59  A    between atoms: _144  and  _146
REMARK   60  A    between atoms: _146  and  _147
REMARK   61  A    between atoms: _146  and  _149
REMARK   62  A    between atoms: _149  and  _150
REMARK   63  A    between atoms: _150  and  _151
REMARK   64  A    between atoms: _151  and  _152
REMARK   65  A    between atoms: _152  and  _153
REMARK   66  A    between atoms: _157  and  _159
REMARK   67  A    between atoms: _159  and  _160
REMARK   68  A    between atoms: _159  and  _162
REMARK   69  A    between atoms: _162  and  _163
REMARK   70  A    between atoms: _166  and  _168
REMARK   71  A    between atoms: _168  and  _169
REMARK   72  A    between atoms: _168  and  _171
REMARK   73  A    between atoms: _171  and  _172
REMARK   74  A    between atoms: _175  and  _177
REMARK   75  A    between atoms: _177  and  _178
REMARK   76  A    between atoms: _177  and  _180
REMARK   77  A    between atoms: _180  and  _181
REMARK   78  A    between atoms: _184  and  _186
REMARK   79  A    between atoms: _186  and  _187
REMARK   80  A    between atoms: _186  and  _189
REMARK   81  A    between atoms: _191  and  _193
REMARK   82  A    between atoms: _193  and  _194
REMARK   83  A    between atoms: _193  and  _196
REMARK   84  A    between atoms: _196  and  _197
REMARK   85  A    between atoms: _197  and  _198
REMARK   86  A    between atoms: _198  and  _199
REMARK   87  A    between atoms: _199  and  _200
REMARK   88  A    between atoms: _204  and  _206
REMARK   89  A    between atoms: _206  and  _207
REMARK   90  A    between atoms: _206  and  _209
REMARK   91  A    between atoms: _209  and  _210
REMARK   92  A    between atoms: _213  and  _215
REMARK   93  A    between atoms: _215  and  _216
REMARK   94  A    between atoms: _215  and  _218
REMARK   95  A    between atoms: _218  and  _219
REMARK   96  A    between atoms: _224  and  _226
REMARK   97  A    between atoms: _226  and  _227
REMARK   98  A    between atoms: _226  and  _229
REMARK   99  A    between atoms: _229  and  _230
REMARK  100  A    between atoms: _236  and  _238
REMARK  101  A    between atoms: _238  and  _239
REMARK  102  A    between atoms: _238  and  _241
REMARK  103  A    between atoms: _241  and  _242
REMARK  104  A    between atoms: _245  and  _247
REMARK  105  A    between atoms: _247  and  _248
REMARK  106  A    between atoms: _251  and  _253
REMARK  107  A    between atoms: _253  and  _254
REMARK  108  A    between atoms: _253  and  _256
REMARK  109  A    between atoms: _256  and  _257
REMARK  110  A    between atoms: _259  and  _261
REMARK  111  A    between atoms: _261  and  _262
REMARK  112  A    between atoms: _261  and  _264
REMARK                            x       y       z     vdW  Elec       q    Type
REMARK                         _______ _______ _______ _____ _____    ______ ____
ROOT
ATOM      1  CA  LEU A   1      39.211   5.207   3.202  0.00  0.00    +0.133 C 
ENDROOT
BRANCH   1   2
ATOM      2  N   LEU A   1      38.505   6.119   2.305  0.00  0.00    -0.239 NA
ATOM      3  H   LEU A   1      37.883   5.720   1.573  0.00  0.00    +0.142 HD
ENDBRANCH   1   2
BRANCH   1   4
ATOM      4  C   LEU A   1      40.426   4.553   2.539  0.00  0.00    +0.224 C 
ATOM      5  O   LEU A   1      41.016   3.639   3.112  0.00  0.00    -0.287 OA
ENDBRANCH   1   4
BRANCH   1   6
ATOM      6  CB  LEU A   1      38.250   4.132   3.740  0.00  0.00    +0.025 C 
BRANCH   6   7
ATOM      7  CG  LEU A   1      36.939   4.668   4.330  0.00  0.00    +0.002 C 
ATOM      8  CD2 LEU A   1      37.246   5.624   5.468  0.00  0.00    +0.000 C 
ATOM      9  CD1 LEU A   1      36.003   3.554   4.785  0.00  0.00    +0.000 C 
ENDBRANCH   6   7
ENDBRANCH   1   6
TORSDOF 4
REMARK  Name = ../refined-set-2016/3d8y/3d8y_pocket.pdb
REMARK  112 active torsions:
REMARK  status: ('A' for Active; 'I' for Inactive)
REMARK    1  A    between atoms: _1  and  _3
REMARK    2  A    between atoms: _3  and  _4
REMARK    3  A    between atoms: _3  and  _6
REMARK    4  A    between atoms: _6  and  _7
REMARK    5  A    between atoms: _7  and  _8
REMARK    6  A    between atoms: _8  and  _9
REMARK    7  A    between atoms: _9  and  _10
REMARK    8  A    between atoms: _14  and  _16
REMARK    9  A    between atoms: _16  and  _17
REMARK   10  A    between atoms: _16  and  _19
REMARK   11  A    between atoms: _19  and  _20
REMARK   12  A    between atoms: _26  and  _28
REMARK   13  A    between atoms: _28  and  _29
REMARK   14  A    between atoms: _28  and  _31
REMARK   15  A    between atoms: _31  and  _32
REMARK   16  A    between atoms: _32  and  _33
REMARK   17  A    between atoms: _38  and  _40
REMARK   18  A    between atoms: _40  and  _41
REMARK   19  A    between atoms: _40  and  _43
REMARK   20  A    between atoms: _43  and  _44
REMARK   21  A    between atoms: _49  and  _51
REMARK   22  A    between atoms: _51  and  _52
REMARK   23  A    between atoms: _51  and  _54
REMARK   24  A    between atoms: _54  and  _55
REMARK   25  A    between atoms: _55  and  _56
REMARK   26  A    between atoms: _58  and  _60
REMARK   27  A    between atoms: _60  and  _61
REMARK   28  A    between atoms: _60  and  _63
REMARK   29  A    between atoms: _63  and  _64
REMARK   30  A    between atoms: _67  and  _69
REMARK   31  A    between atoms: _69  and  _70
REMARK   32  A    between atoms: _69  and  _72
REMARK   33  A    between atoms: _72  and  _73
REMARK   34  A    between atoms: _73  and  _74
REMARK   35  A    between atoms: _74  and  _75
REMARK   36  A    between atoms: _84  and  _86
REMARK   37  A    between atoms: _86  and  _87
REMARK   38  A    between atoms: _86  and  _89
REMARK   39  A    between atoms: _89  and  _90
REMARK   40  A    between atoms: _90  and  _91
REMARK   41  A    between atoms: _91  and  _92
REMARK   42  A    between atoms: _92  and  _93
REMARK   43  A    between atoms: _98  and  _99
REMARK   44  A    between atoms: _104  and  _106
REMARK   45  A    between atoms: _106  and  _107
REMARK   46  A    between atoms: _106  and  _109
REMARK   47  A    between atoms: _112  and  _114
REMARK   48  A    between atoms: _114  and  _115
REMARK   49  A    between atoms: _114  and  _117
REMARK   50  A    between atoms: _117  and  _118
REMARK   51  A    between atoms: _123  and  _125
REMARK   52  A    between atoms: _125  and  _126
REMARK   53  A    between atoms: _125  and  _128
REMARK   54  A    between atoms: _128  and  _129
REMARK   55  A    between atoms: _132  and  _134
REMARK   56  A    between atoms: _134  and  _135
REMARK   57  A    between atoms: _134  and  _137
REMARK   58  A    between atoms: _137  and  _138
REMARK   59  A    between atoms: _144  and  _146
REMARK   60  A    between atoms: _146  and  _147
REMARK   61  A    between atoms: _146  and  _149
REMARK   62  A    between atoms: _149  and  _150
REMARK   63  A    between atoms: _150  and  _151
REMARK   64  A    between atoms: _151  and  _152
REMARK   65  A    between atoms: _152  and  _153
REMARK   66  A    between atoms: _157  and  _159
REMARK   67  A    between atoms: _159  and  _160
REMARK   68  A    between atoms: _159  and  _162
REMARK   69  A    between atoms: _162  and  _163
REMARK   70  A    between atoms: _166  and  _168
REMARK   71  A    between atoms: _168  and  _169
REMARK   72  A    between atoms: _168  and  _171
REMARK   73  A    between atoms: _171  and  _172
REMARK   74  A    between atoms: _175  and  _177
REMARK   75  A    between atoms: _177  and  _178
REMARK   76  A    between atoms: _177  and  _180
REMARK   77  A    between atoms: _180  and  _181
REMARK   78  A    between atoms: _184  and  _186
REMARK   79  A    between atoms: _186  and  _187
REMARK   80  A    between atoms: _186  and  _189
REMARK   81  A    between atoms: _191  and  _193
REMARK   82  A    between atoms: _193  and  _194
REMARK   83  A    between atoms: _193  and  _196
REMARK   84  A    between atoms: _196  and  _197
REMARK   85  A    between atoms: _197  and  _198
REMARK   86  A    between atoms: _198  and  _199
REMARK   87  A    between atoms: _199  and  _200
REMARK   88  A    between atoms: _204  and  _206
REMARK   89  A    between atoms: _206  and  _207
REMARK   90  A    between atoms: _206  and  _209
REMARK   91  A    between atoms: _209  and  _210
REMARK   92  A    between atoms: _213  and  _215
REMARK   93  A    between atoms: _215  and  _216
REMARK   94  A    between atoms: _215  and  _218
REMARK   95  A    between atoms: _218  and  _219
REMARK   96  A    between atoms: _224  and  _226
REMARK   97  A    between atoms: _226  and  _227
REMARK   98  A    between atoms: _226  and  _229
REMARK   99  A    between atoms: _229  and  _230
REMARK  100  A    between atoms: _236  and  _238
REMARK  101  A    between atoms: _238  and  _239
REMARK  102  A    between atoms: _238  and  _241
REMARK  103  A    between atoms: _241  and  _242
REMARK  104  A    between atoms: _245  and  _247
REMARK  105  A    between atoms: _247  and  _248
REMARK  106  A    between atoms: _251  and  _253
REMARK  107  A    between atoms: _253  and  _254
REMARK  108  A    between atoms: _253  and  _256
REMARK  109  A    between atoms: _256  and  _257
REMARK  110  A    between atoms: _259  and  _261
REMARK  111  A    between atoms: _261  and  _262
REMARK  112  A    between atoms: _261  and  _264
REMARK                            x       y       z     vdW  Elec       q    Type
REMARK                         _______ _______ _______ _____ _____    ______ ____
ROOT
ATOM      1  NE  ARG A   1      45.338   2.638   7.598  0.00  0.00    -0.265 N 
ATOM      2  CZ  ARG A   1      45.210   1.879   8.684  0.00  0.00    +0.342 C 
ATOM      3  NH2 ARG A   1      44.171   2.055   9.490  0.00  0.00    -0.292 N 
ATOM      4 HH21 ARG A   1      44.066   1.465  10.340  0.00  0.00    +0.255 HD
ATOM      5 HH22 ARG A   1      43.461   2.783   9.272  0.00  0.00    +0.255 HD
ATOM      6  NH1 ARG A   1      46.107   0.939   8.960  0.00  0.00    -0.292 N 
ATOM      7 HH11 ARG A   1      45.999   0.351   9.811  0.00  0.00    +0.255 HD
ATOM      8 HH12 ARG A   1      46.918   0.791   8.325  0.00  0.00    +0.255 HD
ATOM      9  HE  ARG A   1      44.608   3.359   7.430  0.00  0.00    +0.259 HD
ENDROOT
BRANCH   1  10
ATOM     10  CD  ARG A   1      46.424   2.539   6.622  0.00  0.00    +0.174 C 
BRANCH  10  11
ATOM     11  CG  ARG A   1      46.066   3.349   5.393  0.00  0.00    +0.045 C 
BRANCH  11  12
ATOM     12  CB  ARG A   1      47.123   3.324   4.288  0.00  0.00    +0.029 C 
BRANCH  12  13
ATOM     13  CA  ARG A   1      46.621   3.887   2.952  0.00  0.00    +0.133 C 
BRANCH  13  14
ATOM     14  N   ARG A   1      46.195   5.272   3.102  0.00  0.00    -0.239 NA
ATOM     15  H   ARG A   1      45.172   5.460   3.126  0.00  0.00    +0.142 HD
ENDBRANCH  13  14
BRANCH  13  16
ATOM     16  C   ARG A   1      45.354   3.145   2.552  0.00  0.00    +0.224 C 
ATOM     17  O   ARG A   1      44.277   3.744   2.500  0.00  0.00    -0.287 OA
ENDBRANCH  13  16
ENDBRANCH  12  13
ENDBRANCH  11  12
ENDBRANCH  10  11
ENDBRANCH   1  10
TORSDOF 6
REMARK  Name = ../refined-set-2016/3d8y/3d8y_pocket.pdb
REMARK  112 active torsions:
REMARK  status: ('A' for Active; 'I' for Inactive)
REMARK    1  A    between atoms: _1  and  _3
REMARK    2  A    between atoms: _3  and  _4
REMARK    3  A    between atoms: _3  and  _6
REMARK    4  A    between atoms: _6  and  _7
REMARK    5  A    between atoms: _7  and  _8
REMARK    6  A    between atoms: _8  and  _9
REMARK    7  A    between atoms: _9  and  _10
REMARK    8  A    between atoms: _14  and  _16
REMARK    9  A    between atoms: _16  and  _17
REMARK   10  A    between atoms: _16  and  _19
REMARK   11  A    between atoms: _19  and  _20
REMARK   12  A    between atoms: _26  and  _28
REMARK   13  A    between atoms: _28  and  _29
REMARK   14  A    between atoms: _28  and  _31
REMARK   15  A    between atoms: _31  and  _32
REMARK   16  A    between atoms: _32  and  _33
REMARK   17  A    between atoms: _38  and  _40
REMARK   18  A    between atoms: _40  and  _41
REMARK   19  A    between atoms: _40  and  _43
REMARK   20  A    between atoms: _43  and  _44
REMARK   21  A    between atoms: _49  and  _51
REMARK   22  A    between atoms: _51  and  _52
REMARK   23  A    between atoms: _51  and  _54
REMARK   24  A    between atoms: _54  and  _55
REMARK   25  A    between atoms: _55  and  _56
REMARK   26  A    between atoms: _58  and  _60
REMARK   27  A    between atoms: _60  and  _61
REMARK   28  A    between atoms: _60  and  _63
REMARK   29  A    between atoms: _63  and  _64
REMARK   30  A    between atoms: _67  and  _69
REMARK   31  A    between atoms: _69  and  _70
REMARK   32  A    between atoms: _69  and  _72
REMARK   33  A    between atoms: _72  and  _73
REMARK   34  A    between atoms: _73  and  _74
REMARK   35  A    between atoms: _74  and  _75
REMARK   36  A    between atoms: _84  and  _86
REMARK   37  A    between atoms: _86  and  _87
REMARK   38  A    between atoms: _86  and  _89
REMARK   39  A    between atoms: _89  and  _90
REMARK   40  A    between atoms: _90  and  _91
REMARK   41  A    between atoms: _91  and  _92
REMARK   42  A    between atoms: _92  and  _93
REMARK   43  A    between atoms: _98  and  _99
REMARK   44  A    between atoms: _104  and  _106
REMARK   45  A    between atoms: _106  and  _107
REMARK   46  A    between atoms: _106  and  _109
REMARK   47  A    between atoms: _112  and  _114
REMARK   48  A    between atoms: _114  and  _115
REMARK   49  A    between atoms: _114  and  _117
REMARK   50  A    between atoms: _117  and  _118
REMARK   51  A    between atoms: _123  and  _125
REMARK   52  A    between atoms: _125  and  _126
REMARK   53  A    between atoms: _125  and  _128
REMARK   54  A    between atoms: _128  and  _129
REMARK   55  A    between atoms: _132  and  _134
REMARK   56  A    between atoms: _134  and  _135
REMARK   57  A    between atoms: _134  and  _137
REMARK   58  A    between atoms: _137  and  _138
REMARK   59  A    between atoms: _144  and  _146
REMARK   60  A    between atoms: _146  and  _147
REMARK   61  A    between atoms: _146  and  _149
REMARK   62  A    between atoms: _149  and  _150
REMARK   63  A    between atoms: _150  and  _151
REMARK   64  A    between atoms: _151  and  _152
REMARK   65  A    between atoms: _152  and  _153
REMARK   66  A    between atoms: _157  and  _159
REMARK   67  A    between atoms: _159  and  _160
REMARK   68  A    between atoms: _159  and  _162
REMARK   69  A    between atoms: _162  and  _163
REMARK   70  A    between atoms: _166  and  _168
REMARK   71  A    between atoms: _168  and  _169
REMARK   72  A    between atoms: _168  and  _171
REMARK   73  A    between atoms: _171  and  _172
REMARK   74  A    between atoms: _175  and  _177
REMARK   75  A    between atoms: _177  and  _178
REMARK   76  A    between atoms: _177  and  _180
REMARK   77  A    between atoms: _180  and  _181
REMARK   78  A    between atoms: _184  and  _186
REMARK   79  A    between atoms: _186  and  _187
REMARK   80  A    between atoms: _186  and  _189
REMARK   81  A    between atoms: _191  and  _193
REMARK   82  A    between atoms: _193  and  _194
REMARK   83  A    between atoms: _193  and  _196
REMARK   84  A    between atoms: _196  and  _197
REMARK   85  A    between atoms: _197  and  _198
REMARK   86  A    between atoms: _198  and  _199
REMARK   87  A    between atoms: _199  and  _200
REMARK   88  A    between atoms: _204  and  _206
REMARK   89  A    between atoms: _206  and  _207
REMARK   90  A    between atoms: _206  and  _209
REMARK   91  A    between atoms: _209  and  _210
REMARK   92  A    between atoms: _213  and  _215
REMARK   93  A    between atoms: _215  and  _216
REMARK   94  A    between atoms: _215  and  _218
REMARK   95  A    between atoms: _218  and  _219
REMARK   96  A    between atoms: _224  and  _226
REMARK   97  A    between atoms: _226  and  _227
REMARK   98  A    between atoms: _226  and  _229
REMARK   99  A    between atoms: _229  and  _230
REMARK  100  A    between atoms: _236  and  _238
REMARK  101  A    between atoms: _238  and  _239
REMARK  102  A    between atoms: _238  and  _241
REMARK  103  A    between atoms: _241  and  _242
REMARK  104  A    between atoms: _245  and  _247
REMARK  105  A    between atoms: _247  and  _248
REMARK  106  A    between atoms: _251  and  _253
REMARK  107  A    between atoms: _253  and  _254
REMARK  108  A    between atoms: _253  and  _256
REMARK  109  A    between atoms: _256  and  _257
REMARK  110  A    between atoms: _259  and  _261
REMARK  111  A    between atoms: _261  and  _262
REMARK  112  A    between atoms: _261  and  _264
REMARK                            x       y       z     vdW  Elec       q    Type
REMARK                         _______ _______ _______ _____ _____    ______ ____
ROOT
ATOM      1  C   VAL A   3      38.109  -2.485   8.002  0.00  0.00    +0.241 C 
ATOM      2  O   VAL A   3      38.394  -1.517   8.724  0.00  0.00    -0.273 OA
ATOM      3  N   ASN A   4      36.935  -2.613   7.395  0.00  0.00    -0.297 N 
ATOM      4  H   ASN A   4      36.781  -3.417   6.754  0.00  0.00    +0.150 HD
ENDROOT
BRANCH   3   5
ATOM      5  CA  ASN A   4      35.853  -1.653   7.605  0.00  0.00    +0.158 C 
BRANCH   5   6
ATOM      6  C   ASN A   4      34.489  -2.292   7.392  0.00  0.00    +0.241 C 
ATOM      7  N   THR A   5      33.499  -1.835   8.158  0.00  0.00    -0.295 N 
ATOM      8  H   THR A   5      33.703  -1.079   8.843  0.00  0.00    +0.150 HD
ATOM      9  O   ASN A   4      34.343  -3.162   6.541  0.00  0.00    -0.273 OA
BRANCH   7  10
ATOM     10  CA  THR A   5      32.142  -2.355   8.071  0.00  0.00    +0.176 C 
BRANCH  10  11
ATOM     11  C   THR A   5      31.160  -1.235   7.738  0.00  0.00    +0.243 C 
ATOM     12  O   THR A   5      31.223  -0.141   8.311  0.00  0.00    -0.273 OA
ATOM     13  N   PHE A   6      30.259  -1.522   6.809  0.00  0.00    -0.298 N 
ATOM     14  H   PHE A   6      30.340  -2.427   6.302  0.00  0.00    +0.150 HD
BRANCH  13  15
ATOM     15  CA  PHE A   6      29.166  -0.633   6.467  0.00  0.00    +0.141 C 
BRANCH  15  16
ATOM     16  C   PHE A   6      27.869  -1.255   6.943  0.00  0.00    +0.227 C 
ATOM     17  O   PHE A   6      27.664  -2.456   6.778  0.00  0.00    -0.286 OA
ENDBRANCH  15  16
BRANCH  15  18
ATOM     18  CB  PHE A   6      29.108  -0.425   4.955  0.00  0.00    +0.054 C 
BRANCH  18  19
ATOM     19  CG  PHE A   6      30.272   0.361   4.413  0.00  0.00    -0.020 A 
ATOM     20  CD2 PHE A   6      30.289   1.743   4.516  0.00  0.00    -0.004 A 
ATOM     21  CE2 PHE A   6      31.358   2.491   4.016  0.00  0.00    -0.000 A 
ATOM     22  CZ  PHE A   6      32.434   1.848   3.420  0.00  0.00    -0.000 A 
ATOM     23  CE1 PHE A   6      32.438   0.458   3.311  0.00  0.00    -0.000 A 
ATOM     24  CD1 PHE A   6      31.362  -0.283   3.823  0.00  0.00    -0.004 A 
ENDBRANCH  18  19
ENDBRANCH  15  18
ENDBRANCH  13  15
ENDBRANCH  10  11
BRANCH  10  25
ATOM     25  CB  THR A   5      31.727  -3.049   9.392  0.00  0.00    +0.137 C 
ATOM     26  CG2 THR A   5      30.297  -3.609   9.302  0.00  0.00    +0.034 C 
BRANCH  25  27
ATOM     27  OG1 THR A   5      32.629  -4.121   9.688  0.00  0.00    -0.382 OA
ATOM     28  HG1 THR A   5      32.607  -4.782   8.952  0.00  0.00    +0.210 HD
ENDBRANCH  25  27
ENDBRANCH  10  25
ENDBRANCH   7  10
ENDBRANCH   5   6
BRANCH   5  29
ATOM     29  CB  ASN A   4      36.011  -0.450   6.674  0.00  0.00    +0.114 C 
BRANCH  29  30
ATOM     30  CG  ASN A   4      35.111   0.701   7.063  0.00  0.00    +0.222 C 
ATOM     31  OD1 ASN A   4      35.281   1.290   8.130  0.00  0.00    -0.275 OA
ATOM     32  ND2 ASN A   4      34.160   1.040   6.197  0.00  0.00    -0.329 N 
ATOM     33 HD21 ASN A   4      33.522   1.833   6.410  0.00  0.00    +0.145 HD
ATOM     34 HD22 ASN A   4      34.055   0.512   5.307  0.00  0.00    +0.145 HD
ENDBRANCH  29  30
ENDBRANCH   5  29
ENDBRANCH   3   5
BRANCH   1  35
ATOM     35  CA  VAL A   3      39.126  -3.592   7.734  0.00  0.00    +0.149 C 
BRANCH  35  37
ATOM     36  C   PRO A   2      41.209  -3.553   6.437  0.00  0.00    +0.241 C 
ATOM     37  N   VAL A   3      40.438  -3.029   7.392  0.00  0.00    -0.297 N 
ATOM     38  H   VAL A   3      40.778  -2.194   7.911  0.00  0.00    +0.150 HD
ATOM     39  O   PRO A   2      40.893  -4.567   5.789  0.00  0.00    -0.273 OA
BRANCH  36  45
ATOM     40  C   LYS A   1      41.947  -0.622   5.363  0.00  0.00    +0.241 C 
ATOM     41  N   PRO A   2      42.591  -1.398   6.250  0.00  0.00    -0.272 N 
ATOM     42  CD  PRO A   2      43.437  -0.919   7.363  0.00  0.00    +0.094 C 
ATOM     43  CG  PRO A   2      43.722  -2.167   8.143  0.00  0.00    +0.024 C 
ATOM     44  CB  PRO A   2      43.623  -3.296   7.193  0.00  0.00    +0.031 C 
ATOM     45  CA  PRO A   2      42.570  -2.867   6.164  0.00  0.00    +0.152 C 
ATOM     46  O   LYS A   1      41.225  -1.085   4.487  0.00  0.00    -0.273 OA
BRANCH  40  47
ATOM     47  CA  LYS A   1      42.200   0.895   5.431  0.00  0.00    +0.145 C 
BRANCH  47  48
ATOM     48  N   LYS A   1      42.750   1.305   4.131  0.00  0.00    -0.238 NA
ATOM     49  H   LYS A   1      42.294   2.061   3.581  0.00  0.00    +0.142 HD
ENDBRANCH  47  48
BRANCH  47  50
ATOM     50  CB  LYS A   1      40.926   1.672   5.777  0.00  0.00    +0.026 C 
BRANCH  50  51
ATOM     51  CG  LYS A   1      40.343   1.298   7.125  0.00  0.00    -0.000 C 
BRANCH  51  52
ATOM     52  CD  LYS A   1      39.216   2.222   7.555  0.00  0.00    -0.024 C 
BRANCH  52  53
ATOM     53  CE  LYS A   1      38.802   1.913   8.992  0.00  0.00    -0.086 C 
BRANCH  53  54
ATOM     54  NZ  LYS A   1      37.504   2.547   9.380  0.00  0.00    +0.380 N 
ATOM     55  HZ1 LYS A   1      37.279   2.299  10.365  0.00  0.00    -0.089 HD
ATOM     56  HZ2 LYS A   1      37.584   3.580   9.290  0.00  0.00    -0.089 HD
ATOM     57  HZ3 LYS A   1      36.750   2.201   8.754  0.00  0.00    -0.089 HD
ENDBRANCH  53  54
ENDBRANCH  52  53
ENDBRANCH  51  52
ENDBRANCH  50  51
ENDBRANCH  47  50
ENDBRANCH  40  47
ENDBRANCH  36  45
ENDBRANCH  35  37
BRANCH  35  58
ATOM     58  CB  VAL A   3      39.189  -4.594   8.945  0.00  0.00    +0.027 C 
ATOM     59  CG2 VAL A   3      39.267  -3.879  10.268  0.00  0.00    +0.002 C 
ATOM     60  CG1 VAL A   3      40.373  -5.530   8.818  0.00  0.00    +0.002 C 
ENDBRANCH  35  58
ENDBRANCH   1  35
TORSDOF 23
REMARK  Name = ../refined-set-2016/3d8y/3d8y_pocket.pdb
REMARK  112 active torsions:
REMARK  status: ('A' for Active; 'I' for Inactive)
REMARK    1  A    between atoms: _1  and  _3
REMARK    2  A    between atoms: _3  and  _4
REMARK    3  A    between atoms: _3  and  _6
REMARK    4  A    between atoms: _6  and  _7
REMARK    5  A    between atoms: _7  and  _8
REMARK    6  A    between atoms: _8  and  _9
REMARK    7  A    between atoms: _9  and  _10
REMARK    8  A    between atoms: _14  and  _16
REMARK    9  A    between atoms: _16  and  _17
REMARK   10  A    between atoms: _16  and  _19
REMARK   11  A    between atoms: _19  and  _20
REMARK   12  A    between atoms: _26  and  _28
REMARK   13  A    between atoms: _28  and  _29
REMARK   14  A    between atoms: _28  and  _31
REMARK   15  A    between atoms: _31  and  _32
REMARK   16  A    between atoms: _32  and  _33
REMARK   17  A    between atoms: _38  and  _40
REMARK   18  A    between atoms: _40  and  _41
REMARK   19  A    between atoms: _40  and  _43
REMARK   20  A    between atoms: _43  and  _44
REMARK   21  A    between atoms: _49  and  _51
REMARK   22  A    between atoms: _51  and  _52
REMARK   23  A    between atoms: _51  and  _54
REMARK   24  A    between atoms: _54  and  _55
REMARK   25  A    between atoms: _55  and  _56
REMARK   26  A    between atoms: _58  and  _60
REMARK   27  A    between atoms: _60  and  _61
REMARK   28  A    between atoms: _60  and  _63
REMARK   29  A    between atoms: _63  and  _64
REMARK   30  A    between atoms: _67  and  _69
REMARK   31  A    between atoms: _69  and  _70
REMARK   32  A    between atoms: _69  and  _72
REMARK   33  A    between atoms: _72  and  _73
REMARK   34  A    between atoms: _73  and  _74
REMARK   35  A    between atoms: _74  and  _75
REMARK   36  A    between atoms: _84  and  _86
REMARK   37  A    between atoms: _86  and  _87
REMARK   38  A    between atoms: _86  and  _89
REMARK   39  A    between atoms: _89  and  _90
REMARK   40  A    between atoms: _90  and  _91
REMARK   41  A    between atoms: _91  and  _92
REMARK   42  A    between atoms: _92  and  _93
REMARK   43  A    between atoms: _98  and  _99
REMARK   44  A    between atoms: _104  and  _106
REMARK   45  A    between atoms: _106  and  _107
REMARK   46  A    between atoms: _106  and  _109
REMARK   47  A    between atoms: _112  and  _114
REMARK   48  A    between atoms: _114  and  _115
REMARK   49  A    between atoms: _114  and  _117
REMARK   50  A    between atoms: _117  and  _118
REMARK   51  A    between atoms: _123  and  _125
REMARK   52  A    between atoms: _125  and  _126
REMARK   53  A    between atoms: _125  and  _128
REMARK   54  A    between atoms: _128  and  _129
REMARK   55  A    between atoms: _132  and  _134
REMARK   56  A    between atoms: _134  and  _135
REMARK   57  A    between atoms: _134  and  _137
REMARK   58  A    between atoms: _137  and  _138
REMARK   59  A    between atoms: _144  and  _146
REMARK   60  A    between atoms: _146  and  _147
REMARK   61  A    between atoms: _146  and  _149
REMARK   62  A    between atoms: _149  and  _150
REMARK   63  A    between atoms: _150  and  _151
REMARK   64  A    between atoms: _151  and  _152
REMARK   65  A    between atoms: _152  and  _153
REMARK   66  A    between atoms: _157  and  _159
REMARK   67  A    between atoms: _159  and  _160
REMARK   68  A    between atoms: _159  and  _162
REMARK   69  A    between atoms: _162  and  _163
REMARK   70  A    between atoms: _166  and  _168
REMARK   71  A    between atoms: _168  and  _169
REMARK   72  A    between atoms: _168  and  _171
REMARK   73  A    between atoms: _171  and  _172
REMARK   74  A    between atoms: _175  and  _177
REMARK   75  A    between atoms: _177  and  _178
REMARK   76  A    between atoms: _177  and  _180
REMARK   77  A    between atoms: _180  and  _181
REMARK   78  A    between atoms: _184  and  _186
REMARK   79  A    between atoms: _186  and  _187
REMARK   80  A    between atoms: _186  and  _189
REMARK   81  A    between atoms: _191  and  _193
REMARK   82  A    between atoms: _193  and  _194
REMARK   83  A    between atoms: _193  and  _196
REMARK   84  A    between atoms: _196  and  _197
REMARK   85  A    between atoms: _197  and  _198
REMARK   86  A    between atoms: _198  and  _199
REMARK   87  A    between atoms: _199  and  _200
REMARK   88  A    between atoms: _204  and  _206
REMARK   89  A    between atoms: _206  and  _207
REMARK   90  A    between atoms: _206  and  _209
REMARK   91  A    between atoms: _209  and  _210
REMARK   92  A    between atoms: _213  and  _215
REMARK   93  A    between atoms: _215  and  _216
REMARK   94  A    between atoms: _215  and  _218
REMARK   95  A    between atoms: _218  and  _219
REMARK   96  A    between atoms: _224  and  _226
REMARK   97  A    between atoms: _226  and  _227
REMARK   98  A    between atoms: _226  and  _229
REMARK   99  A    between atoms: _229  and  _230
REMARK  100  A    between atoms: _236  and  _238
REMARK  101  A    between atoms: _238  and  _239
REMARK  102  A    between atoms: _238  and  _241
REMARK  103  A    between atoms: _241  and  _242
REMARK  104  A    between atoms: _245  and  _247
REMARK  105  A    between atoms: _247  and  _248
REMARK  106  A    between atoms: _251  and  _253
REMARK  107  A    between atoms: _253  and  _254
REMARK  108  A    between atoms: _253  and  _256
REMARK  109  A    between atoms: _256  and  _257
REMARK  110  A    between atoms: _259  and  _261
REMARK  111  A    between atoms: _261  and  _262
REMARK  112  A    between atoms: _261  and  _264
REMARK                            x       y       z     vdW  Elec       q    Type
REMARK                         _______ _______ _______ _____ _____    ______ ____
ROOT
ATOM      1  CG  LYS A   1      36.910  -5.344  20.711  0.00  0.00    -0.000 C 
ENDROOT
BRANCH   1   2
ATOM      2  CB  LYS A   1      37.816  -4.312  21.356  0.00  0.00    +0.025 C 
BRANCH   2   3
ATOM      3  CA  LYS A   1      37.497  -4.093  22.840  0.00  0.00    +0.133 C 
BRANCH   3   4
ATOM      4  N   LYS A   1      36.230  -3.351  23.002  0.00  0.00    -0.239 NA
ATOM      5  H   LYS A   1      35.688  -3.079  22.157  0.00  0.00    +0.142 HD
ENDBRANCH   3   4
BRANCH   3   6
ATOM      6  C   LYS A   1      38.684  -3.457  23.559  0.00  0.00    +0.224 C 
ATOM      7  O   LYS A   1      39.545  -4.177  24.078  0.00  0.00    -0.287 OA
ENDBRANCH   3   6
ENDBRANCH   2   3
ENDBRANCH   1   2
BRANCH   1   8
ATOM      8  CD  LYS A   1      37.235  -5.559  19.245  0.00  0.00    -0.024 C 
BRANCH   8   9
ATOM      9  CE  LYS A   1      36.378  -6.684  18.690  0.00  0.00    -0.086 C 
BRANCH   9  10
ATOM     10  NZ  LYS A   1      36.650  -6.929  17.249  0.00  0.00    +0.380 N 
ATOM     11  HZ1 LYS A   1      37.649  -7.189  17.125  0.00  0.00    -0.089 HD
ATOM     12  HZ2 LYS A   1      36.045  -7.704  16.910  0.00  0.00    -0.089 HD
ATOM     13  HZ3 LYS A   1      36.445  -6.065  16.707  0.00  0.00    -0.089 HD
ENDBRANCH   9  10
ENDBRANCH   8   9
ENDBRANCH   1   8
TORSDOF 7
REMARK  Name = ../refined-set-2016/3d8y/3d8y_pocket.pdb
REMARK  112 active torsions:
REMARK  status: ('A' for Active; 'I' for Inactive)
REMARK    1  A    between atoms: _1  and  _3
REMARK    2  A    between atoms: _3  and  _4
REMARK    3  A    between atoms: _3  and  _6
REMARK    4  A    between atoms: _6  and  _7
REMARK    5  A    between atoms: _7  and  _8
REMARK    6  A    between atoms: _8  and  _9
REMARK    7  A    between atoms: _9  and  _10
REMARK    8  A    between atoms: _14  and  _16
REMARK    9  A    between atoms: _16  and  _17
REMARK   10  A    between atoms: _16  and  _19
REMARK   11  A    between atoms: _19  and  _20
REMARK   12  A    between atoms: _26  and  _28
REMARK   13  A    between atoms: _28  and  _29
REMARK   14  A    between atoms: _28  and  _31
REMARK   15  A    between atoms: _31  and  _32
REMARK   16  A    between atoms: _32  and  _33
REMARK   17  A    between atoms: _38  and  _40
REMARK   18  A    between atoms: _40  and  _41
REMARK   19  A    between atoms: _40  and  _43
REMARK   20  A    between atoms: _43  and  _44
REMARK   21  A    between atoms: _49  and  _51
REMARK   22  A    between atoms: _51  and  _52
REMARK   23  A    between atoms: _51  and  _54
REMARK   24  A    between atoms: _54  and  _55
REMARK   25  A    between atoms: _55  and  _56
REMARK   26  A    between atoms: _58  and  _60
REMARK   27  A    between atoms: _60  and  _61
REMARK   28  A    between atoms: _60  and  _63
REMARK   29  A    between atoms: _63  and  _64
REMARK   30  A    between atoms: _67  and  _69
REMARK   31  A    between atoms: _69  and  _70
REMARK   32  A    between atoms: _69  and  _72
REMARK   33  A    between atoms: _72  and  _73
REMARK   34  A    between atoms: _73  and  _74
REMARK   35  A    between atoms: _74  and  _75
REMARK   36  A    between atoms: _84  and  _86
REMARK   37  A    between atoms: _86  and  _87
REMARK   38  A    between atoms: _86  and  _89
REMARK   39  A    between atoms: _89  and  _90
REMARK   40  A    between atoms: _90  and  _91
REMARK   41  A    between atoms: _91  and  _92
REMARK   42  A    between atoms: _92  and  _93
REMARK   43  A    between atoms: _98  and  _99
REMARK   44  A    between atoms: _104  and  _106
REMARK   45  A    between atoms: _106  and  _107
REMARK   46  A    between atoms: _106  and  _109
REMARK   47  A    between atoms: _112  and  _114
REMARK   48  A    between atoms: _114  and  _115
REMARK   49  A    between atoms: _114  and  _117
REMARK   50  A    between atoms: _117  and  _118
REMARK   51  A    between atoms: _123  and  _125
REMARK   52  A    between atoms: _125  and  _126
REMARK   53  A    between atoms: _125  and  _128
REMARK   54  A    between atoms: _128  and  _129
REMARK   55  A    between atoms: _132  and  _134
REMARK   56  A    between atoms: _134  and  _135
REMARK   57  A    between atoms: _134  and  _137
REMARK   58  A    between atoms: _137  and  _138
REMARK   59  A    between atoms: _144  and  _146
REMARK   60  A    between atoms: _146  and  _147
REMARK   61  A    between atoms: _146  and  _149
REMARK   62  A    between atoms: _149  and  _150
REMARK   63  A    between atoms: _150  and  _151
REMARK   64  A    between atoms: _151  and  _152
REMARK   65  A    between atoms: _152  and  _153
REMARK   66  A    between atoms: _157  and  _159
REMARK   67  A    between atoms: _159  and  _160
REMARK   68  A    between atoms: _159  and  _162
REMARK   69  A    between atoms: _162  and  _163
REMARK   70  A    between atoms: _166  and  _168
REMARK   71  A    between atoms: _168  and  _169
REMARK   72  A    between atoms: _168  and  _171
REMARK   73  A    between atoms: _171  and  _172
REMARK   74  A    between atoms: _175  and  _177
REMARK   75  A    between atoms: _177  and  _178
REMARK   76  A    between atoms: _177  and  _180
REMARK   77  A    between atoms: _180  and  _181
REMARK   78  A    between atoms: _184  and  _186
REMARK   79  A    between atoms: _186  and  _187
REMARK   80  A    between atoms: _186  and  _189
REMARK   81  A    between atoms: _191  and  _193
REMARK   82  A    between atoms: _193  and  _194
REMARK   83  A    between atoms: _193  and  _196
REMARK   84  A    between atoms: _196  and  _197
REMARK   85  A    between atoms: _197  and  _198
REMARK   86  A    between atoms: _198  and  _199
REMARK   87  A    between atoms: _199  and  _200
REMARK   88  A    between atoms: _204  and  _206
REMARK   89  A    between atoms: _206  and  _207
REMARK   90  A    between atoms: _206  and  _209
REMARK   91  A    between atoms: _209  and  _210
REMARK   92  A    between atoms: _213  and  _215
REMARK   93  A    between atoms: _215  and  _216
REMARK   94  A    between atoms: _215  and  _218
REMARK   95  A    between atoms: _218  and  _219
REMARK   96  A    between atoms: _224  and  _226
REMARK   97  A    between atoms: _226  and  _227
REMARK   98  A    between atoms: _226  and  _229
REMARK   99  A    between atoms: _229  and  _230
REMARK  100  A    between atoms: _236  and  _238
REMARK  101  A    between atoms: _238  and  _239
REMARK  102  A    between atoms: _238  and  _241
REMARK  103  A    between atoms: _241  and  _242
REMARK  104  A    between atoms: _245  and  _247
REMARK  105  A    between atoms: _247  and  _248
REMARK  106  A    between atoms: _251  and  _253
REMARK  107  A    between atoms: _253  and  _254
REMARK  108  A    between atoms: _253  and  _256
REMARK  109  A    between atoms: _256  and  _257
REMARK  110  A    between atoms: _259  and  _261
REMARK  111  A    between atoms: _261  and  _262
REMARK  112  A    between atoms: _261  and  _264
REMARK                            x       y       z     vdW  Elec       q    Type
REMARK                         _______ _______ _______ _____ _____    ______ ____
ROOT
ATOM      1  C   THR A   2      30.307  -5.340   5.408  0.00  0.00    +0.243 C 
ATOM      2  O   THR A   2      30.664  -4.209   5.720  0.00  0.00    -0.273 OA
ATOM      3  N   ASP A   3      31.058  -6.420   5.596  0.00  0.00    -0.296 N 
ATOM      4  H   ASP A   3      30.651  -7.364   5.436  0.00  0.00    +0.150 HD
ENDROOT
BRANCH   1   5
ATOM      5  CA  THR A   2      28.933  -5.570   4.817  0.00  0.00    +0.176 C 
BRANCH   5   7
ATOM      6  C   ILE A   1      26.930  -5.825   6.146  0.00  0.00    +0.238 C 
ATOM      7  N   THR A   2      27.949  -5.069   5.757  0.00  0.00    -0.295 N 
ATOM      8  H   THR A   2      28.043  -4.103   6.132  0.00  0.00    +0.150 HD
ATOM      9  O   ILE A   1      26.672  -6.914   5.641  0.00  0.00    -0.274 OA
BRANCH   6  10
ATOM     10  CA  ILE A   1      26.081  -5.262   7.281  0.00  0.00    +0.145 C 
BRANCH  10  11
ATOM     11  N   ILE A   1      24.750  -5.878   7.341  0.00  0.00    -0.238 NA
ATOM     12  H   ILE A   1      24.664  -6.910   7.248  0.00  0.00    +0.142 HD
ENDBRANCH  10  11
BRANCH  10  13
ATOM     13  CB  ILE A   1      26.861  -5.398   8.631  0.00  0.00    +0.025 C 
ATOM     14  CG2 ILE A   1      26.086  -4.729   9.771  0.00  0.00    +0.002 C 
BRANCH  13  15
ATOM     15  CG1 ILE A   1      27.220  -6.864   8.933  0.00  0.00    +0.002 C 
ATOM     16  CD1 ILE A   1      28.230  -7.055  10.052  0.00  0.00    +0.000 C 
ENDBRANCH  13  15
ENDBRANCH  10  13
ENDBRANCH   6  10
ENDBRANCH   5   7
BRANCH   5  17
ATOM     17  CB  THR A   2      28.820  -4.883   3.442  0.00  0.00    +0.137 C 
ATOM     18  CG2 THR A   2      29.812  -5.502   2.452  0.00  0.00    +0.034 C 
BRANCH  17  19
ATOM     19  OG1 THR A   2      27.489  -5.048   2.939  0.00  0.00    -0.382 OA
ATOM     20  HG1 THR A   2      26.846  -4.637   3.570  0.00  0.00    +0.210 HD
ENDBRANCH  17  19
ENDBRANCH   5  17
ENDBRANCH   1   5
BRANCH   3  21
ATOM     21  CA  ASP A   3      32.450  -6.295   6.025  0.00  0.00    +0.160 C 
BRANCH  21  22
ATOM     22  C   ASP A   3      33.326  -6.184   4.784  0.00  0.00    +0.241 C 
ATOM     23  N   CYS A   4      34.277  -5.249   4.828  0.00  0.00    -0.297 N 
ATOM     24  H   CYS A   4      34.297  -4.607   5.646  0.00  0.00    +0.150 HD
ATOM     25  O   ASP A   3      33.134  -6.935   3.821  0.00  0.00    -0.273 OA
BRANCH  23  26
ATOM     26  CA  CYS A   4      35.290  -5.077   3.793  0.00  0.00    +0.149 C 
BRANCH  26  27
ATOM     27  C   CYS A   4      36.654  -5.391   4.377  0.00  0.00    +0.228 C 
ATOM     28  O   CYS A   4      37.048  -4.813   5.387  0.00  0.00    -0.286 OA
ENDBRANCH  26  27
BRANCH  26  29
ATOM     29  CB  CYS A   4      35.285  -3.641   3.266  0.00  0.00    +0.096 C 
ATOM     30  SG  CYS A   4      33.706  -3.153   2.575  0.00  0.00    -0.080 S 
ENDBRANCH  26  29
ENDBRANCH  23  26
ENDBRANCH  21  22
BRANCH  21  31
ATOM     31  CB  ASP A   3      32.883  -7.495   6.868  0.00  0.00    +0.143 C 
BRANCH  31  32
ATOM     32  CG  ASP A   3      32.263  -7.497   8.258  0.00  0.00    +0.367 C 
ATOM     33  OD2 ASP A   3      32.210  -6.433   8.915  0.00  0.00    -0.246 OA
ATOM     34  OD1 ASP A   3      31.844  -8.582   8.713  0.00  0.00    -0.246 OA
ENDBRANCH  31  32
ENDBRANCH  21  31
ENDBRANCH   3  21
TORSDOF 15
REMARK  Name = ../refined-set-2016/3d8y/3d8y_pocket.pdb
REMARK  112 active torsions:
REMARK  status: ('A' for Active; 'I' for Inactive)
REMARK    1  A    between atoms: _1  and  _3
REMARK    2  A    between atoms: _3  and  _4
REMARK    3  A    between atoms: _3  and  _6
REMARK    4  A    between atoms: _6  and  _7
REMARK    5  A    between atoms: _7  and  _8
REMARK    6  A    between atoms: _8  and  _9
REMARK    7  A    between atoms: _9  and  _10
REMARK    8  A    between atoms: _14  and  _16
REMARK    9  A    between atoms: _16  and  _17
REMARK   10  A    between atoms: _16  and  _19
REMARK   11  A    between atoms: _19  and  _20
REMARK   12  A    between atoms: _26  and  _28
REMARK   13  A    between atoms: _28  and  _29
REMARK   14  A    between atoms: _28  and  _31
REMARK   15  A    between atoms: _31  and  _32
REMARK   16  A    between atoms: _32  and  _33
REMARK   17  A    between atoms: _38  and  _40
REMARK   18  A    between atoms: _40  and  _41
REMARK   19  A    between atoms: _40  and  _43
REMARK   20  A    between atoms: _43  and  _44
REMARK   21  A    between atoms: _49  and  _51
REMARK   22  A    between atoms: _51  and  _52
REMARK   23  A    between atoms: _51  and  _54
REMARK   24  A    between atoms: _54  and  _55
REMARK   25  A    between atoms: _55  and  _56
REMARK   26  A    between atoms: _58  and  _60
REMARK   27  A    between atoms: _60  and  _61
REMARK   28  A    between atoms: _60  and  _63
REMARK   29  A    between atoms: _63  and  _64
REMARK   30  A    between atoms: _67  and  _69
REMARK   31  A    between atoms: _69  and  _70
REMARK   32  A    between atoms: _69  and  _72
REMARK   33  A    between atoms: _72  and  _73
REMARK   34  A    between atoms: _73  and  _74
REMARK   35  A    between atoms: _74  and  _75
REMARK   36  A    between atoms: _84  and  _86
REMARK   37  A    between atoms: _86  and  _87
REMARK   38  A    between atoms: _86  and  _89
REMARK   39  A    between atoms: _89  and  _90
REMARK   40  A    between atoms: _90  and  _91
REMARK   41  A    between atoms: _91  and  _92
REMARK   42  A    between atoms: _92  and  _93
REMARK   43  A    between atoms: _98  and  _99
REMARK   44  A    between atoms: _104  and  _106
REMARK   45  A    between atoms: _106  and  _107
REMARK   46  A    between atoms: _106  and  _109
REMARK   47  A    between atoms: _112  and  _114
REMARK   48  A    between atoms: _114  and  _115
REMARK   49  A    between atoms: _114  and  _117
REMARK   50  A    between atoms: _117  and  _118
REMARK   51  A    between atoms: _123  and  _125
REMARK   52  A    between atoms: _125  and  _126
REMARK   53  A    between atoms: _125  and  _128
REMARK   54  A    between atoms: _128  and  _129
REMARK   55  A    between atoms: _132  and  _134
REMARK   56  A    between atoms: _134  and  _135
REMARK   57  A    between atoms: _134  and  _137
REMARK   58  A    between atoms: _137  and  _138
REMARK   59  A    between atoms: _144  and  _146
REMARK   60  A    between atoms: _146  and  _147
REMARK   61  A    between atoms: _146  and  _149
REMARK   62  A    between atoms: _149  and  _150
REMARK   63  A    between atoms: _150  and  _151
REMARK   64  A    between atoms: _151  and  _152
REMARK   65  A    between atoms: _152  and  _153
REMARK   66  A    between atoms: _157  and  _159
REMARK   67  A    between atoms: _159  and  _160
REMARK   68  A    between atoms: _159  and  _162
REMARK   69  A    between atoms: _162  and  _163
REMARK   70  A    between atoms: _166  and  _168
REMARK   71  A    between atoms: _168  and  _169
REMARK   72  A    between atoms: _168  and  _171
REMARK   73  A    between atoms: _171  and  _172
REMARK   74  A    between atoms: _175  and  _177
REMARK   75  A    between atoms: _177  and  _178
REMARK   76  A    between atoms: _177  and  _180
REMARK   77  A    between atoms: _180  and  _181
REMARK   78  A    between atoms: _184  and  _186
REMARK   79  A    between atoms: _186  and  _187
REMARK   80  A    between atoms: _186  and  _189
REMARK   81  A    between atoms: _191  and  _193
REMARK   82  A    between atoms: _193  and  _194
REMARK   83  A    between atoms: _193  and  _196
REMARK   84  A    between atoms: _196  and  _197
REMARK   85  A    between atoms: _197  and  _198
REMARK   86  A    between atoms: _198  and  _199
REMARK   87  A    between atoms: _199  and  _200
REMARK   88  A    between atoms: _204  and  _206
REMARK   89  A    between atoms: _206  and  _207
REMARK   90  A    between atoms: _206  and  _209
REMARK   91  A    between atoms: _209  and  _210
REMARK   92  A    between atoms: _213  and  _215
REMARK   93  A    between atoms: _215  and  _216
REMARK   94  A    between atoms: _215  and  _218
REMARK   95  A    between atoms: _218  and  _219
REMARK   96  A    between atoms: _224  and  _226
REMARK   97  A    between atoms: _226  and  _227
REMARK   98  A    between atoms: _226  and  _229
REMARK   99  A    between atoms: _229  and  _230
REMARK  100  A    between atoms: _236  and  _238
REMARK  101  A    between atoms: _238  and  _239
REMARK  102  A    between atoms: _238  and  _241
REMARK  103  A    between atoms: _241  and  _242
REMARK  104  A    between atoms: _245  and  _247
REMARK  105  A    between atoms: _247  and  _248
REMARK  106  A    between atoms: _251  and  _253
REMARK  107  A    between atoms: _253  and  _254
REMARK  108  A    between atoms: _253  and  _256
REMARK  109  A    between atoms: _256  and  _257
REMARK  110  A    between atoms: _259  and  _261
REMARK  111  A    between atoms: _261  and  _262
REMARK  112  A    between atoms: _261  and  _264
REMARK                            x       y       z     vdW  Elec       q    Type
REMARK                         _______ _______ _______ _____ _____    ______ ____
ROOT
ATOM      1  CG  LYS A   1      26.782 -10.881  11.637  0.00  0.00    -0.000 C 
ENDROOT
BRANCH   1   2
ATOM      2  CB  LYS A   1      26.272  -9.758  12.536  0.00  0.00    +0.025 C 
BRANCH   2   3
ATOM      3  CA  LYS A   1      24.743  -9.699  12.686  0.00  0.00    +0.133 C 
BRANCH   3   4
ATOM      4  N   LYS A   1      24.118  -9.522  11.389  0.00  0.00    -0.239 NA
ATOM      5  H   LYS A   1      24.045  -8.566  10.986  0.00  0.00    +0.142 HD
ENDBRANCH   3   4
BRANCH   3   6
ATOM      6  C   LYS A   1      24.378  -8.556  13.614  0.00  0.00    +0.224 C 
ATOM      7  O   LYS A   1      23.923  -7.500  13.176  0.00  0.00    -0.287 OA
ENDBRANCH   3   6
ENDBRANCH   2   3
ENDBRANCH   1   2
BRANCH   1   8
ATOM      8  CD  LYS A   1      28.301 -10.835  11.480  0.00  0.00    -0.024 C 
BRANCH   8   9
ATOM      9  CE  LYS A   1      29.010 -11.360  12.729  0.00  0.00    -0.086 C 
BRANCH   9  10
ATOM     10  NZ  LYS A   1      30.484 -11.469  12.527  0.00  0.00    +0.380 N 
ATOM     11  HZ1 LYS A   1      30.926 -11.828  13.397  0.00  0.00    -0.089 HD
ATOM     12  HZ2 LYS A   1      30.872 -10.531  12.301  0.00  0.00    -0.089 HD
ATOM     13  HZ3 LYS A   1      30.678 -12.123  11.742  0.00  0.00    -0.089 HD
ENDBRANCH   9  10
ENDBRANCH   8   9
ENDBRANCH   1   8
TORSDOF 7
REMARK  Name = ../refined-set-2016/3d8y/3d8y_pocket.pdb
REMARK  112 active torsions:
REMARK  status: ('A' for Active; 'I' for Inactive)
REMARK    1  A    between atoms: _1  and  _3
REMARK    2  A    between atoms: _3  and  _4
REMARK    3  A    between atoms: _3  and  _6
REMARK    4  A    between atoms: _6  and  _7
REMARK    5  A    between atoms: _7  and  _8
REMARK    6  A    between atoms: _8  and  _9
REMARK    7  A    between atoms: _9  and  _10
REMARK    8  A    between atoms: _14  and  _16
REMARK    9  A    between atoms: _16  and  _17
REMARK   10  A    between atoms: _16  and  _19
REMARK   11  A    between atoms: _19  and  _20
REMARK   12  A    between atoms: _26  and  _28
REMARK   13  A    between atoms: _28  and  _29
REMARK   14  A    between atoms: _28  and  _31
REMARK   15  A    between atoms: _31  and  _32
REMARK   16  A    between atoms: _32  and  _33
REMARK   17  A    between atoms: _38  and  _40
REMARK   18  A    between atoms: _40  and  _41
REMARK   19  A    between atoms: _40  and  _43
REMARK   20  A    between atoms: _43  and  _44
REMARK   21  A    between atoms: _49  and  _51
REMARK   22  A    between atoms: _51  and  _52
REMARK   23  A    between atoms: _51  and  _54
REMARK   24  A    between atoms: _54  and  _55
REMARK   25  A    between atoms: _55  and  _56
REMARK   26  A    between atoms: _58  and  _60
REMARK   27  A    between atoms: _60  and  _61
REMARK   28  A    between atoms: _60  and  _63
REMARK   29  A    between atoms: _63  and  _64
REMARK   30  A    between atoms: _67  and  _69
REMARK   31  A    between atoms: _69  and  _70
REMARK   32  A    between atoms: _69  and  _72
REMARK   33  A    between atoms: _72  and  _73
REMARK   34  A    between atoms: _73  and  _74
REMARK   35  A    between atoms: _74  and  _75
REMARK   36  A    between atoms: _84  and  _86
REMARK   37  A    between atoms: _86  and  _87
REMARK   38  A    between atoms: _86  and  _89
REMARK   39  A    between atoms: _89  and  _90
REMARK   40  A    between atoms: _90  and  _91
REMARK   41  A    between atoms: _91  and  _92
REMARK   42  A    between atoms: _92  and  _93
REMARK   43  A    between atoms: _98  and  _99
REMARK   44  A    between atoms: _104  and  _106
REMARK   45  A    between atoms: _106  and  _107
REMARK   46  A    between atoms: _106  and  _109
REMARK   47  A    between atoms: _112  and  _114
REMARK   48  A    between atoms: _114  and  _115
REMARK   49  A    between atoms: _114  and  _117
REMARK   50  A    between atoms: _117  and  _118
REMARK   51  A    between atoms: _123  and  _125
REMARK   52  A    between atoms: _125  and  _126
REMARK   53  A    between atoms: _125  and  _128
REMARK   54  A    between atoms: _128  and  _129
REMARK   55  A    between atoms: _132  and  _134
REMARK   56  A    between atoms: _134  and  _135
REMARK   57  A    between atoms: _134  and  _137
REMARK   58  A    between atoms: _137  and  _138
REMARK   59  A    between atoms: _144  and  _146
REMARK   60  A    between atoms: _146  and  _147
REMARK   61  A    between atoms: _146  and  _149
REMARK   62  A    between atoms: _149  and  _150
REMARK   63  A    between atoms: _150  and  _151
REMARK   64  A    between atoms: _151  and  _152
REMARK   65  A    between atoms: _152  and  _153
REMARK   66  A    between atoms: _157  and  _159
REMARK   67  A    between atoms: _159  and  _160
REMARK   68  A    between atoms: _159  and  _162
REMARK   69  A    between atoms: _162  and  _163
REMARK   70  A    between atoms: _166  and  _168
REMARK   71  A    between atoms: _168  and  _169
REMARK   72  A    between atoms: _168  and  _171
REMARK   73  A    between atoms: _171  and  _172
REMARK   74  A    between atoms: _175  and  _177
REMARK   75  A    between atoms: _177  and  _178
REMARK   76  A    between atoms: _177  and  _180
REMARK   77  A    between atoms: _180  and  _181
REMARK   78  A    between atoms: _184  and  _186
REMARK   79  A    between atoms: _186  and  _187
REMARK   80  A    between atoms: _186  and  _189
REMARK   81  A    between atoms: _191  and  _193
REMARK   82  A    between atoms: _193  and  _194
REMARK   83  A    between atoms: _193  and  _196
REMARK   84  A    between atoms: _196  and  _197
REMARK   85  A    between atoms: _197  and  _198
REMARK   86  A    between atoms: _198  and  _199
REMARK   87  A    between atoms: _199  and  _200
REMARK   88  A    between atoms: _204  and  _206
REMARK   89  A    between atoms: _206  and  _207
REMARK   90  A    between atoms: _206  and  _209
REMARK   91  A    between atoms: _209  and  _210
REMARK   92  A    between atoms: _213  and  _215
REMARK   93  A    between atoms: _215  and  _216
REMARK   94  A    between atoms: _215  and  _218
REMARK   95  A    between atoms: _218  and  _219
REMARK   96  A    between atoms: _224  and  _226
REMARK   97  A    between atoms: _226  and  _227
REMARK   98  A    between atoms: _226  and  _229
REMARK   99  A    between atoms: _229  and  _230
REMARK  100  A    between atoms: _236  and  _238
REMARK  101  A    between atoms: _238  and  _239
REMARK  102  A    between atoms: _238  and  _241
REMARK  103  A    between atoms: _241  and  _242
REMARK  104  A    between atoms: _245  and  _247
REMARK  105  A    between atoms: _247  and  _248
REMARK  106  A    between atoms: _251  and  _253
REMARK  107  A    between atoms: _253  and  _254
REMARK  108  A    between atoms: _253  and  _256
REMARK  109  A    between atoms: _256  and  _257
REMARK  110  A    between atoms: _259  and  _261
REMARK  111  A    between atoms: _261  and  _262
REMARK  112  A    between atoms: _261  and  _264
REMARK                            x       y       z     vdW  Elec       q    Type
REMARK                         _______ _______ _______ _____ _____    ______ ____
ROOT
ATOM      1  CA  ILE A   1      28.606  -3.159  18.614  0.00  0.00    +0.133 C 
ENDROOT
BRANCH   1   2
ATOM      2  N   ILE A   1      28.171  -3.791  17.373  0.00  0.00    -0.239 NA
ATOM      3  H   ILE A   1      28.878  -4.003  16.640  0.00  0.00    +0.142 HD
ENDBRANCH   1   2
BRANCH   1   4
ATOM      4  CB  ILE A   1      29.560  -4.059  19.420  0.00  0.00    +0.023 C 
ATOM      5  CG2 ILE A   1      30.068  -3.324  20.672  0.00  0.00    +0.002 C 
BRANCH   4   6
ATOM      6  CG1 ILE A   1      28.879  -5.392  19.769  0.00  0.00    +0.002 C 
ATOM      7  CD1 ILE A   1      29.826  -6.438  20.374  0.00  0.00    +0.000 C 
ENDBRANCH   4   6
ENDBRANCH   1   4
BRANCH   1   8
ATOM      8  C   ILE A   1      29.294  -1.842  18.257  0.00  0.00    +0.224 C 
ATOM      9  O   ILE A   1      30.266  -1.841  17.496  0.00  0.00    -0.287 OA
ENDBRANCH   1   8
TORSDOF 4
REMARK  Name = ../refined-set-2016/3d8y/3d8y_pocket.pdb
REMARK  112 active torsions:
REMARK  status: ('A' for Active; 'I' for Inactive)
REMARK    1  A    between atoms: _1  and  _3
REMARK    2  A    between atoms: _3  and  _4
REMARK    3  A    between atoms: _3  and  _6
REMARK    4  A    between atoms: _6  and  _7
REMARK    5  A    between atoms: _7  and  _8
REMARK    6  A    between atoms: _8  and  _9
REMARK    7  A    between atoms: _9  and  _10
REMARK    8  A    between atoms: _14  and  _16
REMARK    9  A    between atoms: _16  and  _17
REMARK   10  A    between atoms: _16  and  _19
REMARK   11  A    between atoms: _19  and  _20
REMARK   12  A    between atoms: _26  and  _28
REMARK   13  A    between atoms: _28  and  _29
REMARK   14  A    between atoms: _28  and  _31
REMARK   15  A    between atoms: _31  and  _32
REMARK   16  A    between atoms: _32  and  _33
REMARK   17  A    between atoms: _38  and  _40
REMARK   18  A    between atoms: _40  and  _41
REMARK   19  A    between atoms: _40  and  _43
REMARK   20  A    between atoms: _43  and  _44
REMARK   21  A    between atoms: _49  and  _51
REMARK   22  A    between atoms: _51  and  _52
REMARK   23  A    between atoms: _51  and  _54
REMARK   24  A    between atoms: _54  and  _55
REMARK   25  A    between atoms: _55  and  _56
REMARK   26  A    between atoms: _58  and  _60
REMARK   27  A    between atoms: _60  and  _61
REMARK   28  A    between atoms: _60  and  _63
REMARK   29  A    between atoms: _63  and  _64
REMARK   30  A    between atoms: _67  and  _69
REMARK   31  A    between atoms: _69  and  _70
REMARK   32  A    between atoms: _69  and  _72
REMARK   33  A    between atoms: _72  and  _73
REMARK   34  A    between atoms: _73  and  _74
REMARK   35  A    between atoms: _74  and  _75
REMARK   36  A    between atoms: _84  and  _86
REMARK   37  A    between atoms: _86  and  _87
REMARK   38  A    between atoms: _86  and  _89
REMARK   39  A    between atoms: _89  and  _90
REMARK   40  A    between atoms: _90  and  _91
REMARK   41  A    between atoms: _91  and  _92
REMARK   42  A    between atoms: _92  and  _93
REMARK   43  A    between atoms: _98  and  _99
REMARK   44  A    between atoms: _104  and  _106
REMARK   45  A    between atoms: _106  and  _107
REMARK   46  A    between atoms: _106  and  _109
REMARK   47  A    between atoms: _112  and  _114
REMARK   48  A    between atoms: _114  and  _115
REMARK   49  A    between atoms: _114  and  _117
REMARK   50  A    between atoms: _117  and  _118
REMARK   51  A    between atoms: _123  and  _125
REMARK   52  A    between atoms: _125  and  _126
REMARK   53  A    between atoms: _125  and  _128
REMARK   54  A    between atoms: _128  and  _129
REMARK   55  A    between atoms: _132  and  _134
REMARK   56  A    between atoms: _134  and  _135
REMARK   57  A    between atoms: _134  and  _137
REMARK   58  A    between atoms: _137  and  _138
REMARK   59  A    between atoms: _144  and  _146
REMARK   60  A    between atoms: _146  and  _147
REMARK   61  A    between atoms: _146  and  _149
REMARK   62  A    between atoms: _149  and  _150
REMARK   63  A    between atoms: _150  and  _151
REMARK   64  A    between atoms: _151  and  _152
REMARK   65  A    between atoms: _152  and  _153
REMARK   66  A    between atoms: _157  and  _159
REMARK   67  A    between atoms: _159  and  _160
REMARK   68  A    between atoms: _159  and  _162
REMARK   69  A    between atoms: _162  and  _163
REMARK   70  A    between atoms: _166  and  _168
REMARK   71  A    between atoms: _168  and  _169
REMARK   72  A    between atoms: _168  and  _171
REMARK   73  A    between atoms: _171  and  _172
REMARK   74  A    between atoms: _175  and  _177
REMARK   75  A    between atoms: _177  and  _178
REMARK   76  A    between atoms: _177  and  _180
REMARK   77  A    between atoms: _180  and  _181
REMARK   78  A    between atoms: _184  and  _186
REMARK   79  A    between atoms: _186  and  _187
REMARK   80  A    between atoms: _186  and  _189
REMARK   81  A    between atoms: _191  and  _193
REMARK   82  A    between atoms: _193  and  _194
REMARK   83  A    between atoms: _193  and  _196
REMARK   84  A    between atoms: _196  and  _197
REMARK   85  A    between atoms: _197  and  _198
REMARK   86  A    between atoms: _198  and  _199
REMARK   87  A    between atoms: _199  and  _200
REMARK   88  A    between atoms: _204  and  _206
REMARK   89  A    between atoms: _206  and  _207
REMARK   90  A    between atoms: _206  and  _209
REMARK   91  A    between atoms: _209  and  _210
REMARK   92  A    between atoms: _213  and  _215
REMARK   93  A    between atoms: _215  and  _216
REMARK   94  A    between atoms: _215  and  _218
REMARK   95  A    between atoms: _218  and  _219
REMARK   96  A    between atoms: _224  and  _226
REMARK   97  A    between atoms: _226  and  _227
REMARK   98  A    between atoms: _226  and  _229
REMARK   99  A    between atoms: _229  and  _230
REMARK  100  A    between atoms: _236  and  _238
REMARK  101  A    between atoms: _238  and  _239
REMARK  102  A    between atoms: _238  and  _241
REMARK  103  A    between atoms: _241  and  _242
REMARK  104  A    between atoms: _245  and  _247
REMARK  105  A    between atoms: _247  and  _248
REMARK  106  A    between atoms: _251  and  _253
REMARK  107  A    between atoms: _253  and  _254
REMARK  108  A    between atoms: _253  and  _256
REMARK  109  A    between atoms: _256  and  _257
REMARK  110  A    between atoms: _259  and  _261
REMARK  111  A    between atoms: _261  and  _262
REMARK  112  A    between atoms: _261  and  _264
REMARK                            x       y       z     vdW  Elec       q    Type
REMARK                         _______ _______ _______ _____ _____    ______ ____
ROOT
ATOM      1  CA  ASP A   3      33.747  -1.877  17.544  0.00  0.00    +0.160 C 
ENDROOT
BRANCH   1   3
ATOM      2  C   PHE A   2      33.333  -0.301  15.759  0.00  0.00    +0.241 C 
ATOM      3  N   ASP A   3      32.845  -1.053  16.748  0.00  0.00    -0.297 N 
ATOM      4  H   ASP A   3      31.825  -1.051  16.950  0.00  0.00    +0.150 HD
ATOM      5  O   PHE A   2      34.509  -0.377  15.385  0.00  0.00    -0.273 OA
BRANCH   2   6
ATOM      6  CA  PHE A   2      32.384   0.693  15.099  0.00  0.00    +0.153 C 
BRANCH   6   9
ATOM      7  C   HIS A   1      32.473   2.794  16.293  0.00  0.00    +0.239 C 
ATOM      8  O   HIS A   1      31.500   2.467  16.991  0.00  0.00    -0.274 OA
ATOM      9  N   PHE A   2      32.928   2.039  15.303  0.00  0.00    -0.297 N 
ATOM     10  H   PHE A   2      33.671   2.401  14.671  0.00  0.00    +0.150 HD
BRANCH   7  11
ATOM     11  CA  HIS A   1      33.212   4.090  16.550  0.00  0.00    +0.151 C 
BRANCH  11  12
ATOM     12  N   HIS A   1      32.275   5.140  16.984  0.00  0.00    -0.238 NA
ATOM     13  H   HIS A   1      31.442   4.881  17.551  0.00  0.00    +0.142 HD
ENDBRANCH  11  12
BRANCH  11  14
ATOM     14  CB  HIS A   1      34.301   3.818  17.605  0.00  0.00    +0.074 C 
BRANCH  14  15
ATOM     15  CG  HIS A   1      35.152   5.003  17.939  0.00  0.00    +0.082 A 
ATOM     16  ND1 HIS A   1      35.230   5.530  19.211  0.00  0.00    -0.227 NA
ATOM     17  CE1 HIS A   1      36.058   6.561  19.209  0.00  0.00    +0.199 A 
ATOM     18  NE2 HIS A   1      36.514   6.725  17.980  0.00  0.00    -0.221 NA
ATOM     19  CD2 HIS A   1      35.974   5.755  17.169  0.00  0.00    +0.115 A 
ENDBRANCH  14  15
ENDBRANCH  11  14
ENDBRANCH   7  11
ENDBRANCH   6   9
BRANCH   6  20
ATOM     20  CB  PHE A   2      32.219   0.399  13.605  0.00  0.00    +0.055 C 
BRANCH  20  21
ATOM     21  CG  PHE A   2      31.445  -0.849  13.331  0.00  0.00    -0.020 A 
ATOM     22  CD2 PHE A   2      32.076  -2.096  13.378  0.00  0.00    -0.004 A 
ATOM     23  CE2 PHE A   2      31.355  -3.272  13.140  0.00  0.00    -0.000 A 
ATOM     24  CZ  PHE A   2      29.987  -3.209  12.862  0.00  0.00    -0.000 A 
ATOM     25  CE1 PHE A   2      29.344  -1.976  12.824  0.00  0.00    -0.000 A 
ATOM     26  CD1 PHE A   2      30.079  -0.791  13.059  0.00  0.00    -0.004 A 
ENDBRANCH  20  21
ENDBRANCH   6  20
ENDBRANCH   2   6
ENDBRANCH   1   3
BRANCH   1  27
ATOM     27  C   ASP A   3      33.843  -3.294  17.007  0.00  0.00    +0.241 C 
ATOM     28  O   ASP A   3      34.944  -3.850  16.878  0.00  0.00    -0.273 OA
ATOM     29  N   ALA A   4      32.690  -3.871  16.690  0.00  0.00    -0.297 N 
ATOM     30  H   ALA A   4      31.819  -3.303  16.688  0.00  0.00    +0.150 HD
BRANCH  29  31
ATOM     31  CA  ALA A   4      32.621  -5.298  16.341  0.00  0.00    +0.149 C 
ATOM     32  CB  ALA A   4      32.941  -6.149  17.579  0.00  0.00    +0.031 C 
BRANCH  31  33
ATOM     33  C   ALA A   4      31.254  -5.679  15.827  0.00  0.00    +0.241 C 
ATOM     34  O   ALA A   4      30.278  -4.950  15.989  0.00  0.00    -0.273 OA
ATOM     35  N   SER A   5      31.184  -6.858  15.223  0.00  0.00    -0.295 N 
ATOM     36  H   SER A   5      32.056  -7.342  14.928  0.00  0.00    +0.150 HD
BRANCH  35  37
ATOM     37  CA  SER A   5      29.903  -7.470  14.974  0.00  0.00    +0.178 C 
BRANCH  37  38
ATOM     38  C   SER A   5      29.957  -8.863  15.560  0.00  0.00    +0.243 C 
ATOM     39  N   VAL A   6      28.822  -9.317  16.072  0.00  0.00    -0.295 N 
ATOM     40  H   VAL A   6      27.967  -8.728  16.020  0.00  0.00    +0.150 HD
ATOM     41  O   SER A   5      31.015  -9.502  15.569  0.00  0.00    -0.273 OA
BRANCH  39  42
ATOM     42  CA  VAL A   6      28.751 -10.626  16.706  0.00  0.00    +0.176 C 
BRANCH  42  43
ATOM     43  C   VAL A   6      27.488 -11.359  16.285  0.00  0.00    +0.382 C 
ATOM     44  OXT VAL A   6      27.439 -12.591  16.381  0.00  0.00    -0.244 OA
ATOM     45  O   VAL A   6      26.506 -10.743  15.861  0.00  0.00    -0.244 OA
ENDBRANCH  42  43
BRANCH  42  46
ATOM     46  CB  VAL A   6      28.825 -10.535  18.267  0.00  0.00    +0.029 C 
ATOM     47  CG2 VAL A   6      27.645  -9.757  18.833  0.00  0.00    +0.002 C 
ATOM     48  CG1 VAL A   6      30.142  -9.904  18.709  0.00  0.00    +0.002 C 
ENDBRANCH  42  46
ENDBRANCH  39  42
ENDBRANCH  37  38
BRANCH  37  49
ATOM     49  CB  SER A   5      29.571  -7.500  13.483  0.00  0.00    +0.166 C 
BRANCH  49  50
ATOM     50  OG  SER A   5      30.471  -8.321  12.761  0.00  0.00    -0.380 OA
ATOM     51  H   SER A   5      31.392  -7.973  12.868  0.00  0.00    +0.211 HD
ENDBRANCH  49  50
ENDBRANCH  37  49
ENDBRANCH  35  37
ENDBRANCH  31  33
ENDBRANCH  29  31
ENDBRANCH   1  27
BRANCH   1  52
ATOM     52  CB  ASP A   3      33.334  -1.891  19.025  0.00  0.00    +0.143 C 
BRANCH  52  53
ATOM     53  CG  ASP A   3      34.507  -2.144  19.946  0.00  0.00    +0.367 C 
ATOM     54  OD2 ASP A   3      34.399  -3.051  20.803  0.00  0.00    -0.246 OA
ATOM     55  OD1 ASP A   3      35.539  -1.441  19.811  0.00  0.00    -0.246 OA
ENDBRANCH  52  53
ENDBRANCH   1  52
TORSDOF 21
REMARK  Name = ../refined-set-2016/3d8y/3d8y_pocket.pdb
REMARK  112 active torsions:
REMARK  status: ('A' for Active; 'I' for Inactive)
REMARK    1  A    between atoms: _1  and  _3
REMARK    2  A    between atoms: _3  and  _4
REMARK    3  A    between atoms: _3  and  _6
REMARK    4  A    between atoms: _6  and  _7
REMARK    5  A    between atoms: _7  and  _8
REMARK    6  A    between atoms: _8  and  _9
REMARK    7  A    between atoms: _9  and  _10
REMARK    8  A    between atoms: _14  and  _16
REMARK    9  A    between atoms: _16  and  _17
REMARK   10  A    between atoms: _16  and  _19
REMARK   11  A    between atoms: _19  and  _20
REMARK   12  A    between atoms: _26  and  _28
REMARK   13  A    between atoms: _28  and  _29
REMARK   14  A    between atoms: _28  and  _31
REMARK   15  A    between atoms: _31  and  _32
REMARK   16  A    between atoms: _32  and  _33
REMARK   17  A    between atoms: _38  and  _40
REMARK   18  A    between atoms: _40  and  _41
REMARK   19  A    between atoms: _40  and  _43
REMARK   20  A    between atoms: _43  and  _44
REMARK   21  A    between atoms: _49  and  _51
REMARK   22  A    between atoms: _51  and  _52
REMARK   23  A    between atoms: _51  and  _54
REMARK   24  A    between atoms: _54  and  _55
REMARK   25  A    between atoms: _55  and  _56
REMARK   26  A    between atoms: _58  and  _60
REMARK   27  A    between atoms: _60  and  _61
REMARK   28  A    between atoms: _60  and  _63
REMARK   29  A    between atoms: _63  and  _64
REMARK   30  A    between atoms: _67  and  _69
REMARK   31  A    between atoms: _69  and  _70
REMARK   32  A    between atoms: _69  and  _72
REMARK   33  A    between atoms: _72  and  _73
REMARK   34  A    between atoms: _73  and  _74
REMARK   35  A    between atoms: _74  and  _75
REMARK   36  A    between atoms: _84  and  _86
REMARK   37  A    between atoms: _86  and  _87
REMARK   38  A    between atoms: _86  and  _89
REMARK   39  A    between atoms: _89  and  _90
REMARK   40  A    between atoms: _90  and  _91
REMARK   41  A    between atoms: _91  and  _92
REMARK   42  A    between atoms: _92  and  _93
REMARK   43  A    between atoms: _98  and  _99
REMARK   44  A    between atoms: _104  and  _106
REMARK   45  A    between atoms: _106  and  _107
REMARK   46  A    between atoms: _106  and  _109
REMARK   47  A    between atoms: _112  and  _114
REMARK   48  A    between atoms: _114  and  _115
REMARK   49  A    between atoms: _114  and  _117
REMARK   50  A    between atoms: _117  and  _118
REMARK   51  A    between atoms: _123  and  _125
REMARK   52  A    between atoms: _125  and  _126
REMARK   53  A    between atoms: _125  and  _128
REMARK   54  A    between atoms: _128  and  _129
REMARK   55  A    between atoms: _132  and  _134
REMARK   56  A    between atoms: _134  and  _135
REMARK   57  A    between atoms: _134  and  _137
REMARK   58  A    between atoms: _137  and  _138
REMARK   59  A    between atoms: _144  and  _146
REMARK   60  A    between atoms: _146  and  _147
REMARK   61  A    between atoms: _146  and  _149
REMARK   62  A    between atoms: _149  and  _150
REMARK   63  A    between atoms: _150  and  _151
REMARK   64  A    between atoms: _151  and  _152
REMARK   65  A    between atoms: _152  and  _153
REMARK   66  A    between atoms: _157  and  _159
REMARK   67  A    between atoms: _159  and  _160
REMARK   68  A    between atoms: _159  and  _162
REMARK   69  A    between atoms: _162  and  _163
REMARK   70  A    between atoms: _166  and  _168
REMARK   71  A    between atoms: _168  and  _169
REMARK   72  A    between atoms: _168  and  _171
REMARK   73  A    between atoms: _171  and  _172
REMARK   74  A    between atoms: _175  and  _177
REMARK   75  A    between atoms: _177  and  _178
REMARK   76  A    between atoms: _177  and  _180
REMARK   77  A    between atoms: _180  and  _181
REMARK   78  A    between atoms: _184  and  _186
REMARK   79  A    between atoms: _186  and  _187
REMARK   80  A    between atoms: _186  and  _189
REMARK   81  A    between atoms: _191  and  _193
REMARK   82  A    between atoms: _193  and  _194
REMARK   83  A    between atoms: _193  and  _196
REMARK   84  A    between atoms: _196  and  _197
REMARK   85  A    between atoms: _197  and  _198
REMARK   86  A    between atoms: _198  and  _199
REMARK   87  A    between atoms: _199  and  _200
REMARK   88  A    between atoms: _204  and  _206
REMARK   89  A    between atoms: _206  and  _207
REMARK   90  A    between atoms: _206  and  _209
REMARK   91  A    between atoms: _209  and  _210
REMARK   92  A    between atoms: _213  and  _215
REMARK   93  A    between atoms: _215  and  _216
REMARK   94  A    between atoms: _215  and  _218
REMARK   95  A    between atoms: _218  and  _219
REMARK   96  A    between atoms: _224  and  _226
REMARK   97  A    between atoms: _226  and  _227
REMARK   98  A    between atoms: _226  and  _229
REMARK   99  A    between atoms: _229  and  _230
REMARK  100  A    between atoms: _236  and  _238
REMARK  101  A    between atoms: _238  and  _239
REMARK  102  A    between atoms: _238  and  _241
REMARK  103  A    between atoms: _241  and  _242
REMARK  104  A    between atoms: _245  and  _247
REMARK  105  A    between atoms: _247  and  _248
REMARK  106  A    between atoms: _251  and  _253
REMARK  107  A    between atoms: _253  and  _254
REMARK  108  A    between atoms: _253  and  _256
REMARK  109  A    between atoms: _256  and  _257
REMARK  110  A    between atoms: _259  and  _261
REMARK  111  A    between atoms: _261  and  _262
REMARK  112  A    between atoms: _261  and  _264
REMARK                            x       y       z     vdW  Elec       q    Type
REMARK                         _______ _______ _______ _____ _____    ______ ____
ROOT
ATOM      1  O   HOH     1      40.920  -0.816   9.684  0.00  0.00    +0.000 OA
ENDROOT
TORSDOF 0
REMARK  Name = ../refined-set-2016/3d8y/3d8y_pocket.pdb
REMARK  112 active torsions:
REMARK  status: ('A' for Active; 'I' for Inactive)
REMARK    1  A    between atoms: _1  and  _3
REMARK    2  A    between atoms: _3  and  _4
REMARK    3  A    between atoms: _3  and  _6
REMARK    4  A    between atoms: _6  and  _7
REMARK    5  A    between atoms: _7  and  _8
REMARK    6  A    between atoms: _8  and  _9
REMARK    7  A    between atoms: _9  and  _10
REMARK    8  A    between atoms: _14  and  _16
REMARK    9  A    between atoms: _16  and  _17
REMARK   10  A    between atoms: _16  and  _19
REMARK   11  A    between atoms: _19  and  _20
REMARK   12  A    between atoms: _26  and  _28
REMARK   13  A    between atoms: _28  and  _29
REMARK   14  A    between atoms: _28  and  _31
REMARK   15  A    between atoms: _31  and  _32
REMARK   16  A    between atoms: _32  and  _33
REMARK   17  A    between atoms: _38  and  _40
REMARK   18  A    between atoms: _40  and  _41
REMARK   19  A    between atoms: _40  and  _43
REMARK   20  A    between atoms: _43  and  _44
REMARK   21  A    between atoms: _49  and  _51
REMARK   22  A    between atoms: _51  and  _52
REMARK   23  A    between atoms: _51  and  _54
REMARK   24  A    between atoms: _54  and  _55
REMARK   25  A    between atoms: _55  and  _56
REMARK   26  A    between atoms: _58  and  _60
REMARK   27  A    between atoms: _60  and  _61
REMARK   28  A    between atoms: _60  and  _63
REMARK   29  A    between atoms: _63  and  _64
REMARK   30  A    between atoms: _67  and  _69
REMARK   31  A    between atoms: _69  and  _70
REMARK   32  A    between atoms: _69  and  _72
REMARK   33  A    between atoms: _72  and  _73
REMARK   34  A    between atoms: _73  and  _74
REMARK   35  A    between atoms: _74  and  _75
REMARK   36  A    between atoms: _84  and  _86
REMARK   37  A    between atoms: _86  and  _87
REMARK   38  A    between atoms: _86  and  _89
REMARK   39  A    between atoms: _89  and  _90
REMARK   40  A    between atoms: _90  and  _91
REMARK   41  A    between atoms: _91  and  _92
REMARK   42  A    between atoms: _92  and  _93
REMARK   43  A    between atoms: _98  and  _99
REMARK   44  A    between atoms: _104  and  _106
REMARK   45  A    between atoms: _106  and  _107
REMARK   46  A    between atoms: _106  and  _109
REMARK   47  A    between atoms: _112  and  _114
REMARK   48  A    between atoms: _114  and  _115
REMARK   49  A    between atoms: _114  and  _117
REMARK   50  A    between atoms: _117  and  _118
REMARK   51  A    between atoms: _123  and  _125
REMARK   52  A    between atoms: _125  and  _126
REMARK   53  A    between atoms: _125  and  _128
REMARK   54  A    between atoms: _128  and  _129
REMARK   55  A    between atoms: _132  and  _134
REMARK   56  A    between atoms: _134  and  _135
REMARK   57  A    between atoms: _134  and  _137
REMARK   58  A    between atoms: _137  and  _138
REMARK   59  A    between atoms: _144  and  _146
REMARK   60  A    between atoms: _146  and  _147
REMARK   61  A    between atoms: _146  and  _149
REMARK   62  A    between atoms: _149  and  _150
REMARK   63  A    between atoms: _150  and  _151
REMARK   64  A    between atoms: _151  and  _152
REMARK   65  A    between atoms: _152  and  _153
REMARK   66  A    between atoms: _157  and  _159
REMARK   67  A    between atoms: _159  and  _160
REMARK   68  A    between atoms: _159  and  _162
REMARK   69  A    between atoms: _162  and  _163
REMARK   70  A    between atoms: _166  and  _168
REMARK   71  A    between atoms: _168  and  _169
REMARK   72  A    between atoms: _168  and  _171
REMARK   73  A    between atoms: _171  and  _172
REMARK   74  A    between atoms: _175  and  _177
REMARK   75  A    between atoms: _177  and  _178
REMARK   76  A    between atoms: _177  and  _180
REMARK   77  A    between atoms: _180  and  _181
REMARK   78  A    between atoms: _184  and  _186
REMARK   79  A    between atoms: _186  and  _187
REMARK   80  A    between atoms: _186  and  _189
REMARK   81  A    between atoms: _191  and  _193
REMARK   82  A    between atoms: _193  and  _194
REMARK   83  A    between atoms: _193  and  _196
REMARK   84  A    between atoms: _196  and  _197
REMARK   85  A    between atoms: _197  and  _198
REMARK   86  A    between atoms: _198  and  _199
REMARK   87  A    between atoms: _199  and  _200
REMARK   88  A    between atoms: _204  and  _206
REMARK   89  A    between atoms: _206  and  _207
REMARK   90  A    between atoms: _206  and  _209
REMARK   91  A    between atoms: _209  and  _210
REMARK   92  A    between atoms: _213  and  _215
REMARK   93  A    between atoms: _215  and  _216
REMARK   94  A    between atoms: _215  and  _218
REMARK   95  A    between atoms: _218  and  _219
REMARK   96  A    between atoms: _224  and  _226
REMARK   97  A    between atoms: _226  and  _227
REMARK   98  A    between atoms: _226  and  _229
REMARK   99  A    between atoms: _229  and  _230
REMARK  100  A    between atoms: _236  and  _238
REMARK  101  A    between atoms: _238  and  _239
REMARK  102  A    between atoms: _238  and  _241
REMARK  103  A    between atoms: _241  and  _242
REMARK  104  A    between atoms: _245  and  _247
REMARK  105  A    between atoms: _247  and  _248
REMARK  106  A    between atoms: _251  and  _253
REMARK  107  A    between atoms: _253  and  _254
REMARK  108  A    between atoms: _253  and  _256
REMARK  109  A    between atoms: _256  and  _257
REMARK  110  A    between atoms: _259  and  _261
REMARK  111  A    between atoms: _261  and  _262
REMARK  112  A    between atoms: _261  and  _264
REMARK                            x       y       z     vdW  Elec       q    Type
REMARK                         _______ _______ _______ _____ _____    ______ ____
ROOT
ATOM      1  O   HOH     1      35.089   1.141  18.958  0.00  0.00    +0.000 OA
ENDROOT
TORSDOF 0
REMARK  Name = ../refined-set-2016/3d8y/3d8y_pocket.pdb
REMARK  112 active torsions:
REMARK  status: ('A' for Active; 'I' for Inactive)
REMARK    1  A    between atoms: _1  and  _3
REMARK    2  A    between atoms: _3  and  _4
REMARK    3  A    between atoms: _3  and  _6
REMARK    4  A    between atoms: _6  and  _7
REMARK    5  A    between atoms: _7  and  _8
REMARK    6  A    between atoms: _8  and  _9
REMARK    7  A    between atoms: _9  and  _10
REMARK    8  A    between atoms: _14  and  _16
REMARK    9  A    between atoms: _16  and  _17
REMARK   10  A    between atoms: _16  and  _19
REMARK   11  A    between atoms: _19  and  _20
REMARK   12  A    between atoms: _26  and  _28
REMARK   13  A    between atoms: _28  and  _29
REMARK   14  A    between atoms: _28  and  _31
REMARK   15  A    between atoms: _31  and  _32
REMARK   16  A    between atoms: _32  and  _33
REMARK   17  A    between atoms: _38  and  _40
REMARK   18  A    between atoms: _40  and  _41
REMARK   19  A    between atoms: _40  and  _43
REMARK   20  A    between atoms: _43  and  _44
REMARK   21  A    between atoms: _49  and  _51
REMARK   22  A    between atoms: _51  and  _52
REMARK   23  A    between atoms: _51  and  _54
REMARK   24  A    between atoms: _54  and  _55
REMARK   25  A    between atoms: _55  and  _56
REMARK   26  A    between atoms: _58  and  _60
REMARK   27  A    between atoms: _60  and  _61
REMARK   28  A    between atoms: _60  and  _63
REMARK   29  A    between atoms: _63  and  _64
REMARK   30  A    between atoms: _67  and  _69
REMARK   31  A    between atoms: _69  and  _70
REMARK   32  A    between atoms: _69  and  _72
REMARK   33  A    between atoms: _72  and  _73
REMARK   34  A    between atoms: _73  and  _74
REMARK   35  A    between atoms: _74  and  _75
REMARK   36  A    between atoms: _84  and  _86
REMARK   37  A    between atoms: _86  and  _87
REMARK   38  A    between atoms: _86  and  _89
REMARK   39  A    between atoms: _89  and  _90
REMARK   40  A    between atoms: _90  and  _91
REMARK   41  A    between atoms: _91  and  _92
REMARK   42  A    between atoms: _92  and  _93
REMARK   43  A    between atoms: _98  and  _99
REMARK   44  A    between atoms: _104  and  _106
REMARK   45  A    between atoms: _106  and  _107
REMARK   46  A    between atoms: _106  and  _109
REMARK   47  A    between atoms: _112  and  _114
REMARK   48  A    between atoms: _114  and  _115
REMARK   49  A    between atoms: _114  and  _117
REMARK   50  A    between atoms: _117  and  _118
REMARK   51  A    between atoms: _123  and  _125
REMARK   52  A    between atoms: _125  and  _126
REMARK   53  A    between atoms: _125  and  _128
REMARK   54  A    between atoms: _128  and  _129
REMARK   55  A    between atoms: _132  and  _134
REMARK   56  A    between atoms: _134  and  _135
REMARK   57  A    between atoms: _134  and  _137
REMARK   58  A    between atoms: _137  and  _138
REMARK   59  A    between atoms: _144  and  _146
REMARK   60  A    between atoms: _146  and  _147
REMARK   61  A    between atoms: _146  and  _149
REMARK   62  A    between atoms: _149  and  _150
REMARK   63  A    between atoms: _150  and  _151
REMARK   64  A    between atoms: _151  and  _152
REMARK   65  A    between atoms: _152  and  _153
REMARK   66  A    between atoms: _157  and  _159
REMARK   67  A    between atoms: _159  and  _160
REMARK   68  A    between atoms: _159  and  _162
REMARK   69  A    between atoms: _162  and  _163
REMARK   70  A    between atoms: _166  and  _168
REMARK   71  A    between atoms: _168  and  _169
REMARK   72  A    between atoms: _168  and  _171
REMARK   73  A    between atoms: _171  and  _172
REMARK   74  A    between atoms: _175  and  _177
REMARK   75  A    between atoms: _177  and  _178
REMARK   76  A    between atoms: _177  and  _180
REMARK   77  A    between atoms: _180  and  _181
REMARK   78  A    between atoms: _184  and  _186
REMARK   79  A    between atoms: _186  and  _187
REMARK   80  A    between atoms: _186  and  _189
REMARK   81  A    between atoms: _191  and  _193
REMARK   82  A    between atoms: _193  and  _194
REMARK   83  A    between atoms: _193  and  _196
REMARK   84  A    between atoms: _196  and  _197
REMARK   85  A    between atoms: _197  and  _198
REMARK   86  A    between atoms: _198  and  _199
REMARK   87  A    between atoms: _199  and  _200
REMARK   88  A    between atoms: _204  and  _206
REMARK   89  A    between atoms: _206  and  _207
REMARK   90  A    between atoms: _206  and  _209
REMARK   91  A    between atoms: _209  and  _210
REMARK   92  A    between atoms: _213  and  _215
REMARK   93  A    between atoms: _215  and  _216
REMARK   94  A    between atoms: _215  and  _218
REMARK   95  A    between atoms: _218  and  _219
REMARK   96  A    between atoms: _224  and  _226
REMARK   97  A    between atoms: _226  and  _227
REMARK   98  A    between atoms: _226  and  _229
REMARK   99  A    between atoms: _229  and  _230
REMARK  100  A    between atoms: _236  and  _238
REMARK  101  A    between atoms: _238  and  _239
REMARK  102  A    between atoms: _238  and  _241
REMARK  103  A    between atoms: _241  and  _242
REMARK  104  A    between atoms: _245  and  _247
REMARK  105  A    between atoms: _247  and  _248
REMARK  106  A    between atoms: _251  and  _253
REMARK  107  A    between atoms: _253  and  _254
REMARK  108  A    between atoms: _253  and  _256
REMARK  109  A    between atoms: _256  and  _257
REMARK  110  A    between atoms: _259  and  _261
REMARK  111  A    between atoms: _261  and  _262
REMARK  112  A    between atoms: _261  and  _264
REMARK                            x       y       z     vdW  Elec       q    Type
REMARK                         _______ _______ _______ _____ _____    ______ ____
ROOT
ATOM      1  O   HOH     1      37.367  -0.513  21.549  0.00  0.00    +0.000 OA
ENDROOT
TORSDOF 0
REMARK  Name = ../refined-set-2016/3d8y/3d8y_pocket.pdb
REMARK  112 active torsions:
REMARK  status: ('A' for Active; 'I' for Inactive)
REMARK    1  A    between atoms: _1  and  _3
REMARK    2  A    between atoms: _3  and  _4
REMARK    3  A    between atoms: _3  and  _6
REMARK    4  A    between atoms: _6  and  _7
REMARK    5  A    between atoms: _7  and  _8
REMARK    6  A    between atoms: _8  and  _9
REMARK    7  A    between atoms: _9  and  _10
REMARK    8  A    between atoms: _14  and  _16
REMARK    9  A    between atoms: _16  and  _17
REMARK   10  A    between atoms: _16  and  _19
REMARK   11  A    between atoms: _19  and  _20
REMARK   12  A    between atoms: _26  and  _28
REMARK   13  A    between atoms: _28  and  _29
REMARK   14  A    between atoms: _28  and  _31
REMARK   15  A    between atoms: _31  and  _32
REMARK   16  A    between atoms: _32  and  _33
REMARK   17  A    between atoms: _38  and  _40
REMARK   18  A    between atoms: _40  and  _41
REMARK   19  A    between atoms: _40  and  _43
REMARK   20  A    between atoms: _43  and  _44
REMARK   21  A    between atoms: _49  and  _51
REMARK   22  A    between atoms: _51  and  _52
REMARK   23  A    between atoms: _51  and  _54
REMARK   24  A    between atoms: _54  and  _55
REMARK   25  A    between atoms: _55  and  _56
REMARK   26  A    between atoms: _58  and  _60
REMARK   27  A    between atoms: _60  and  _61
REMARK   28  A    between atoms: _60  and  _63
REMARK   29  A    between atoms: _63  and  _64
REMARK   30  A    between atoms: _67  and  _69
REMARK   31  A    between atoms: _69  and  _70
REMARK   32  A    between atoms: _69  and  _72
REMARK   33  A    between atoms: _72  and  _73
REMARK   34  A    between atoms: _73  and  _74
REMARK   35  A    between atoms: _74  and  _75
REMARK   36  A    between atoms: _84  and  _86
REMARK   37  A    between atoms: _86  and  _87
REMARK   38  A    between atoms: _86  and  _89
REMARK   39  A    between atoms: _89  and  _90
REMARK   40  A    between atoms: _90  and  _91
REMARK   41  A    between atoms: _91  and  _92
REMARK   42  A    between atoms: _92  and  _93
REMARK   43  A    between atoms: _98  and  _99
REMARK   44  A    between atoms: _104  and  _106
REMARK   45  A    between atoms: _106  and  _107
REMARK   46  A    between atoms: _106  and  _109
REMARK   47  A    between atoms: _112  and  _114
REMARK   48  A    between atoms: _114  and  _115
REMARK   49  A    between atoms: _114  and  _117
REMARK   50  A    between atoms: _117  and  _118
REMARK   51  A    between atoms: _123  and  _125
REMARK   52  A    between atoms: _125  and  _126
REMARK   53  A    between atoms: _125  and  _128
REMARK   54  A    between atoms: _128  and  _129
REMARK   55  A    between atoms: _132  and  _134
REMARK   56  A    between atoms: _134  and  _135
REMARK   57  A    between atoms: _134  and  _137
REMARK   58  A    between atoms: _137  and  _138
REMARK   59  A    between atoms: _144  and  _146
REMARK   60  A    between atoms: _146  and  _147
REMARK   61  A    between atoms: _146  and  _149
REMARK   62  A    between atoms: _149  and  _150
REMARK   63  A    between atoms: _150  and  _151
REMARK   64  A    between atoms: _151  and  _152
REMARK   65  A    between atoms: _152  and  _153
REMARK   66  A    between atoms: _157  and  _159
REMARK   67  A    between atoms: _159  and  _160
REMARK   68  A    between atoms: _159  and  _162
REMARK   69  A    between atoms: _162  and  _163
REMARK   70  A    between atoms: _166  and  _168
REMARK   71  A    between atoms: _168  and  _169
REMARK   72  A    between atoms: _168  and  _171
REMARK   73  A    between atoms: _171  and  _172
REMARK   74  A    between atoms: _175  and  _177
REMARK   75  A    between atoms: _177  and  _178
REMARK   76  A    between atoms: _177  and  _180
REMARK   77  A    between atoms: _180  and  _181
REMARK   78  A    between atoms: _184  and  _186
REMARK   79  A    between atoms: _186  and  _187
REMARK   80  A    between atoms: _186  and  _189
REMARK   81  A    between atoms: _191  and  _193
REMARK   82  A    between atoms: _193  and  _194
REMARK   83  A    between atoms: _193  and  _196
REMARK   84  A    between atoms: _196  and  _197
REMARK   85  A    between atoms: _197  and  _198
REMARK   86  A    between atoms: _198  and  _199
REMARK   87  A    between atoms: _199  and  _200
REMARK   88  A    between atoms: _204  and  _206
REMARK   89  A    between atoms: _206  and  _207
REMARK   90  A    between atoms: _206  and  _209
REMARK   91  A    between atoms: _209  and  _210
REMARK   92  A    between atoms: _213  and  _215
REMARK   93  A    between atoms: _215  and  _216
REMARK   94  A    between atoms: _215  and  _218
REMARK   95  A    between atoms: _218  and  _219
REMARK   96  A    between atoms: _224  and  _226
REMARK   97  A    between atoms: _226  and  _227
REMARK   98  A    between atoms: _226  and  _229
REMARK   99  A    between atoms: _229  and  _230
REMARK  100  A    between atoms: _236  and  _238
REMARK  101  A    between atoms: _238  and  _239
REMARK  102  A    between atoms: _238  and  _241
REMARK  103  A    between atoms: _241  and  _242
REMARK  104  A    between atoms: _245  and  _247
REMARK  105  A    between atoms: _247  and  _248
REMARK  106  A    between atoms: _251  and  _253
REMARK  107  A    between atoms: _253  and  _254
REMARK  108  A    between atoms: _253  and  _256
REMARK  109  A    between atoms: _256  and  _257
REMARK  110  A    between atoms: _259  and  _261
REMARK  111  A    between atoms: _261  and  _262
REMARK  112  A    between atoms: _261  and  _264
REMARK                            x       y       z     vdW  Elec       q    Type
REMARK                         _______ _______ _______ _____ _____    ______ ____
ROOT
ATOM      1  O   HOH     1      34.047   6.032  12.764  0.00  0.00    +0.000 OA
ENDROOT
TORSDOF 0
REMARK  Name = ../refined-set-2016/3d8y/3d8y_pocket.pdb
REMARK  112 active torsions:
REMARK  status: ('A' for Active; 'I' for Inactive)
REMARK    1  A    between atoms: _1  and  _3
REMARK    2  A    between atoms: _3  and  _4
REMARK    3  A    between atoms: _3  and  _6
REMARK    4  A    between atoms: _6  and  _7
REMARK    5  A    between atoms: _7  and  _8
REMARK    6  A    between atoms: _8  and  _9
REMARK    7  A    between atoms: _9  and  _10
REMARK    8  A    between atoms: _14  and  _16
REMARK    9  A    between atoms: _16  and  _17
REMARK   10  A    between atoms: _16  and  _19
REMARK   11  A    between atoms: _19  and  _20
REMARK   12  A    between atoms: _26  and  _28
REMARK   13  A    between atoms: _28  and  _29
REMARK   14  A    between atoms: _28  and  _31
REMARK   15  A    between atoms: _31  and  _32
REMARK   16  A    between atoms: _32  and  _33
REMARK   17  A    between atoms: _38  and  _40
REMARK   18  A    between atoms: _40  and  _41
REMARK   19  A    between atoms: _40  and  _43
REMARK   20  A    between atoms: _43  and  _44
REMARK   21  A    between atoms: _49  and  _51
REMARK   22  A    between atoms: _51  and  _52
REMARK   23  A    between atoms: _51  and  _54
REMARK   24  A    between atoms: _54  and  _55
REMARK   25  A    between atoms: _55  and  _56
REMARK   26  A    between atoms: _58  and  _60
REMARK   27  A    between atoms: _60  and  _61
REMARK   28  A    between atoms: _60  and  _63
REMARK   29  A    between atoms: _63  and  _64
REMARK   30  A    between atoms: _67  and  _69
REMARK   31  A    between atoms: _69  and  _70
REMARK   32  A    between atoms: _69  and  _72
REMARK   33  A    between atoms: _72  and  _73
REMARK   34  A    between atoms: _73  and  _74
REMARK   35  A    between atoms: _74  and  _75
REMARK   36  A    between atoms: _84  and  _86
REMARK   37  A    between atoms: _86  and  _87
REMARK   38  A    between atoms: _86  and  _89
REMARK   39  A    between atoms: _89  and  _90
REMARK   40  A    between atoms: _90  and  _91
REMARK   41  A    between atoms: _91  and  _92
REMARK   42  A    between atoms: _92  and  _93
REMARK   43  A    between atoms: _98  and  _99
REMARK   44  A    between atoms: _104  and  _106
REMARK   45  A    between atoms: _106  and  _107
REMARK   46  A    between atoms: _106  and  _109
REMARK   47  A    between atoms: _112  and  _114
REMARK   48  A    between atoms: _114  and  _115
REMARK   49  A    between atoms: _114  and  _117
REMARK   50  A    between atoms: _117  and  _118
REMARK   51  A    between atoms: _123  and  _125
REMARK   52  A    between atoms: _125  and  _126
REMARK   53  A    between atoms: _125  and  _128
REMARK   54  A    between atoms: _128  and  _129
REMARK   55  A    between atoms: _132  and  _134
REMARK   56  A    between atoms: _134  and  _135
REMARK   57  A    between atoms: _134  and  _137
REMARK   58  A    between atoms: _137  and  _138
REMARK   59  A    between atoms: _144  and  _146
REMARK   60  A    between atoms: _146  and  _147
REMARK   61  A    between atoms: _146  and  _149
REMARK   62  A    between atoms: _149  and  _150
REMARK   63  A    between atoms: _150  and  _151
REMARK   64  A    between atoms: _151  and  _152
REMARK   65  A    between atoms: _152  and  _153
REMARK   66  A    between atoms: _157  and  _159
REMARK   67  A    between atoms: _159  and  _160
REMARK   68  A    between atoms: _159  and  _162
REMARK   69  A    between atoms: _162  and  _163
REMARK   70  A    between atoms: _166  and  _168
REMARK   71  A    between atoms: _168  and  _169
REMARK   72  A    between atoms: _168  and  _171
REMARK   73  A    between atoms: _171  and  _172
REMARK   74  A    between atoms: _175  and  _177
REMARK   75  A    between atoms: _177  and  _178
REMARK   76  A    between atoms: _177  and  _180
REMARK   77  A    between atoms: _180  and  _181
REMARK   78  A    between atoms: _184  and  _186
REMARK   79  A    between atoms: _186  and  _187
REMARK   80  A    between atoms: _186  and  _189
REMARK   81  A    between atoms: _191  and  _193
REMARK   82  A    between atoms: _193  and  _194
REMARK   83  A    between atoms: _193  and  _196
REMARK   84  A    between atoms: _196  and  _197
REMARK   85  A    between atoms: _197  and  _198
REMARK   86  A    between atoms: _198  and  _199
REMARK   87  A    between atoms: _199  and  _200
REMARK   88  A    between atoms: _204  and  _206
REMARK   89  A    between atoms: _206  and  _207
REMARK   90  A    between atoms: _206  and  _209
REMARK   91  A    between atoms: _209  and  _210
REMARK   92  A    between atoms: _213  and  _215
REMARK   93  A    between atoms: _215  and  _216
REMARK   94  A    between atoms: _215  and  _218
REMARK   95  A    between atoms: _218  and  _219
REMARK   96  A    between atoms: _224  and  _226
REMARK   97  A    between atoms: _226  and  _227
REMARK   98  A    between atoms: _226  and  _229
REMARK   99  A    between atoms: _229  and  _230
REMARK  100  A    between atoms: _236  and  _238
REMARK  101  A    between atoms: _238  and  _239
REMARK  102  A    between atoms: _238  and  _241
REMARK  103  A    between atoms: _241  and  _242
REMARK  104  A    between atoms: _245  and  _247
REMARK  105  A    between atoms: _247  and  _248
REMARK  106  A    between atoms: _251  and  _253
REMARK  107  A    between atoms: _253  and  _254
REMARK  108  A    between atoms: _253  and  _256
REMARK  109  A    between atoms: _256  and  _257
REMARK  110  A    between atoms: _259  and  _261
REMARK  111  A    between atoms: _261  and  _262
REMARK  112  A    between atoms: _261  and  _264
REMARK                            x       y       z     vdW  Elec       q    Type
REMARK                         _______ _______ _______ _____ _____    ______ ____
ROOT
ATOM      1  O   HOH     1      31.748  -6.557  11.367  0.00  0.00    +0.000 OA
ENDROOT
TORSDOF 0
REMARK  Name = ../refined-set-2016/3d8y/3d8y_pocket.pdb
REMARK  112 active torsions:
REMARK  status: ('A' for Active; 'I' for Inactive)
REMARK    1  A    between atoms: _1  and  _3
REMARK    2  A    between atoms: _3  and  _4
REMARK    3  A    between atoms: _3  and  _6
REMARK    4  A    between atoms: _6  and  _7
REMARK    5  A    between atoms: _7  and  _8
REMARK    6  A    between atoms: _8  and  _9
REMARK    7  A    between atoms: _9  and  _10
REMARK    8  A    between atoms: _14  and  _16
REMARK    9  A    between atoms: _16  and  _17
REMARK   10  A    between atoms: _16  and  _19
REMARK   11  A    between atoms: _19  and  _20
REMARK   12  A    between atoms: _26  and  _28
REMARK   13  A    between atoms: _28  and  _29
REMARK   14  A    between atoms: _28  and  _31
REMARK   15  A    between atoms: _31  and  _32
REMARK   16  A    between atoms: _32  and  _33
REMARK   17  A    between atoms: _38  and  _40
REMARK   18  A    between atoms: _40  and  _41
REMARK   19  A    between atoms: _40  and  _43
REMARK   20  A    between atoms: _43  and  _44
REMARK   21  A    between atoms: _49  and  _51
REMARK   22  A    between atoms: _51  and  _52
REMARK   23  A    between atoms: _51  and  _54
REMARK   24  A    between atoms: _54  and  _55
REMARK   25  A    between atoms: _55  and  _56
REMARK   26  A    between atoms: _58  and  _60
REMARK   27  A    between atoms: _60  and  _61
REMARK   28  A    between atoms: _60  and  _63
REMARK   29  A    between atoms: _63  and  _64
REMARK   30  A    between atoms: _67  and  _69
REMARK   31  A    between atoms: _69  and  _70
REMARK   32  A    between atoms: _69  and  _72
REMARK   33  A    between atoms: _72  and  _73
REMARK   34  A    between atoms: _73  and  _74
REMARK   35  A    between atoms: _74  and  _75
REMARK   36  A    between atoms: _84  and  _86
REMARK   37  A    between atoms: _86  and  _87
REMARK   38  A    between atoms: _86  and  _89
REMARK   39  A    between atoms: _89  and  _90
REMARK   40  A    between atoms: _90  and  _91
REMARK   41  A    between atoms: _91  and  _92
REMARK   42  A    between atoms: _92  and  _93
REMARK   43  A    between atoms: _98  and  _99
REMARK   44  A    between atoms: _104  and  _106
REMARK   45  A    between atoms: _106  and  _107
REMARK   46  A    between atoms: _106  and  _109
REMARK   47  A    between atoms: _112  and  _114
REMARK   48  A    between atoms: _114  and  _115
REMARK   49  A    between atoms: _114  and  _117
REMARK   50  A    between atoms: _117  and  _118
REMARK   51  A    between atoms: _123  and  _125
REMARK   52  A    between atoms: _125  and  _126
REMARK   53  A    between atoms: _125  and  _128
REMARK   54  A    between atoms: _128  and  _129
REMARK   55  A    between atoms: _132  and  _134
REMARK   56  A    between atoms: _134  and  _135
REMARK   57  A    between atoms: _134  and  _137
REMARK   58  A    between atoms: _137  and  _138
REMARK   59  A    between atoms: _144  and  _146
REMARK   60  A    between atoms: _146  and  _147
REMARK   61  A    between atoms: _146  and  _149
REMARK   62  A    between atoms: _149  and  _150
REMARK   63  A    between atoms: _150  and  _151
REMARK   64  A    between atoms: _151  and  _152
REMARK   65  A    between atoms: _152  and  _153
REMARK   66  A    between atoms: _157  and  _159
REMARK   67  A    between atoms: _159  and  _160
REMARK   68  A    between atoms: _159  and  _162
REMARK   69  A    between atoms: _162  and  _163
REMARK   70  A    between atoms: _166  and  _168
REMARK   71  A    between atoms: _168  and  _169
REMARK   72  A    between atoms: _168  and  _171
REMARK   73  A    between atoms: _171  and  _172
REMARK   74  A    between atoms: _175  and  _177
REMARK   75  A    between atoms: _177  and  _178
REMARK   76  A    between atoms: _177  and  _180
REMARK   77  A    between atoms: _180  and  _181
REMARK   78  A    between atoms: _184  and  _186
REMARK   79  A    between atoms: _186  and  _187
REMARK   80  A    between atoms: _186  and  _189
REMARK   81  A    between atoms: _191  and  _193
REMARK   82  A    between atoms: _193  and  _194
REMARK   83  A    between atoms: _193  and  _196
REMARK   84  A    between atoms: _196  and  _197
REMARK   85  A    between atoms: _197  and  _198
REMARK   86  A    between atoms: _198  and  _199
REMARK   87  A    between atoms: _199  and  _200
REMARK   88  A    between atoms: _204  and  _206
REMARK   89  A    between atoms: _206  and  _207
REMARK   90  A    between atoms: _206  and  _209
REMARK   91  A    between atoms: _209  and  _210
REMARK   92  A    between atoms: _213  and  _215
REMARK   93  A    between atoms: _215  and  _216
REMARK   94  A    between atoms: _215  and  _218
REMARK   95  A    between atoms: _218  and  _219
REMARK   96  A    between atoms: _224  and  _226
REMARK   97  A    between atoms: _226  and  _227
REMARK   98  A    between atoms: _226  and  _229
REMARK   99  A    between atoms: _229  and  _230
REMARK  100  A    between atoms: _236  and  _238
REMARK  101  A    between atoms: _238  and  _239
REMARK  102  A    between atoms: _238  and  _241
REMARK  103  A    between atoms: _241  and  _242
REMARK  104  A    between atoms: _245  and  _247
REMARK  105  A    between atoms: _247  and  _248
REMARK  106  A    between atoms: _251  and  _253
REMARK  107  A    between atoms: _253  and  _254
REMARK  108  A    between atoms: _253  and  _256
REMARK  109  A    between atoms: _256  and  _257
REMARK  110  A    between atoms: _259  and  _261
REMARK  111  A    between atoms: _261  and  _262
REMARK  112  A    between atoms: _261  and  _264
REMARK                            x       y       z     vdW  Elec       q    Type
REMARK                         _______ _______ _______ _____ _____    ______ ____
ROOT
ATOM      1  O   HOH     1      33.912  -7.823  14.360  0.00  0.00    +0.000 OA
ENDROOT
TORSDOF 0
REMARK  Name = ../refined-set-2016/3d8y/3d8y_pocket.pdb
REMARK  112 active torsions:
REMARK  status: ('A' for Active; 'I' for Inactive)
REMARK    1  A    between atoms: _1  and  _3
REMARK    2  A    between atoms: _3  and  _4
REMARK    3  A    between atoms: _3  and  _6
REMARK    4  A    between atoms: _6  and  _7
REMARK    5  A    between atoms: _7  and  _8
REMARK    6  A    between atoms: _8  and  _9
REMARK    7  A    between atoms: _9  and  _10
REMARK    8  A    between atoms: _14  and  _16
REMARK    9  A    between atoms: _16  and  _17
REMARK   10  A    between atoms: _16  and  _19
REMARK   11  A    between atoms: _19  and  _20
REMARK   12  A    between atoms: _26  and  _28
REMARK   13  A    between atoms: _28  and  _29
REMARK   14  A    between atoms: _28  and  _31
REMARK   15  A    between atoms: _31  and  _32
REMARK   16  A    between atoms: _32  and  _33
REMARK   17  A    between atoms: _38  and  _40
REMARK   18  A    between atoms: _40  and  _41
REMARK   19  A    between atoms: _40  and  _43
REMARK   20  A    between atoms: _43  and  _44
REMARK   21  A    between atoms: _49  and  _51
REMARK   22  A    between atoms: _51  and  _52
REMARK   23  A    between atoms: _51  and  _54
REMARK   24  A    between atoms: _54  and  _55
REMARK   25  A    between atoms: _55  and  _56
REMARK   26  A    between atoms: _58  and  _60
REMARK   27  A    between atoms: _60  and  _61
REMARK   28  A    between atoms: _60  and  _63
REMARK   29  A    between atoms: _63  and  _64
REMARK   30  A    between atoms: _67  and  _69
REMARK   31  A    between atoms: _69  and  _70
REMARK   32  A    between atoms: _69  and  _72
REMARK   33  A    between atoms: _72  and  _73
REMARK   34  A    between atoms: _73  and  _74
REMARK   35  A    between atoms: _74  and  _75
REMARK   36  A    between atoms: _84  and  _86
REMARK   37  A    between atoms: _86  and  _87
REMARK   38  A    between atoms: _86  and  _89
REMARK   39  A    between atoms: _89  and  _90
REMARK   40  A    between atoms: _90  and  _91
REMARK   41  A    between atoms: _91  and  _92
REMARK   42  A    between atoms: _92  and  _93
REMARK   43  A    between atoms: _98  and  _99
REMARK   44  A    between atoms: _104  and  _106
REMARK   45  A    between atoms: _106  and  _107
REMARK   46  A    between atoms: _106  and  _109
REMARK   47  A    between atoms: _112  and  _114
REMARK   48  A    between atoms: _114  and  _115
REMARK   49  A    between atoms: _114  and  _117
REMARK   50  A    between atoms: _117  and  _118
REMARK   51  A    between atoms: _123  and  _125
REMARK   52  A    between atoms: _125  and  _126
REMARK   53  A    between atoms: _125  and  _128
REMARK   54  A    between atoms: _128  and  _129
REMARK   55  A    between atoms: _132  and  _134
REMARK   56  A    between atoms: _134  and  _135
REMARK   57  A    between atoms: _134  and  _137
REMARK   58  A    between atoms: _137  and  _138
REMARK   59  A    between atoms: _144  and  _146
REMARK   60  A    between atoms: _146  and  _147
REMARK   61  A    between atoms: _146  and  _149
REMARK   62  A    between atoms: _149  and  _150
REMARK   63  A    between atoms: _150  and  _151
REMARK   64  A    between atoms: _151  and  _152
REMARK   65  A    between atoms: _152  and  _153
REMARK   66  A    between atoms: _157  and  _159
REMARK   67  A    between atoms: _159  and  _160
REMARK   68  A    between atoms: _159  and  _162
REMARK   69  A    between atoms: _162  and  _163
REMARK   70  A    between atoms: _166  and  _168
REMARK   71  A    between atoms: _168  and  _169
REMARK   72  A    between atoms: _168  and  _171
REMARK   73  A    between atoms: _171  and  _172
REMARK   74  A    between atoms: _175  and  _177
REMARK   75  A    between atoms: _177  and  _178
REMARK   76  A    between atoms: _177  and  _180
REMARK   77  A    between atoms: _180  and  _181
REMARK   78  A    between atoms: _184  and  _186
REMARK   79  A    between atoms: _186  and  _187
REMARK   80  A    between atoms: _186  and  _189
REMARK   81  A    between atoms: _191  and  _193
REMARK   82  A    between atoms: _193  and  _194
REMARK   83  A    between atoms: _193  and  _196
REMARK   84  A    between atoms: _196  and  _197
REMARK   85  A    between atoms: _197  and  _198
REMARK   86  A    between atoms: _198  and  _199
REMARK   87  A    between atoms: _199  and  _200
REMARK   88  A    between atoms: _204  and  _206
REMARK   89  A    between atoms: _206  and  _207
REMARK   90  A    between atoms: _206  and  _209
REMARK   91  A    between atoms: _209  and  _210
REMARK   92  A    between atoms: _213  and  _215
REMARK   93  A    between atoms: _215  and  _216
REMARK   94  A    between atoms: _215  and  _218
REMARK   95  A    between atoms: _218  and  _219
REMARK   96  A    between atoms: _224  and  _226
REMARK   97  A    between atoms: _226  and  _227
REMARK   98  A    between atoms: _226  and  _229
REMARK   99  A    between atoms: _229  and  _230
REMARK  100  A    between atoms: _236  and  _238
REMARK  101  A    between atoms: _238  and  _239
REMARK  102  A    between atoms: _238  and  _241
REMARK  103  A    between atoms: _241  and  _242
REMARK  104  A    between atoms: _245  and  _247
REMARK  105  A    between atoms: _247  and  _248
REMARK  106  A    between atoms: _251  and  _253
REMARK  107  A    between atoms: _253  and  _254
REMARK  108  A    between atoms: _253  and  _256
REMARK  109  A    between atoms: _256  and  _257
REMARK  110  A    between atoms: _259  and  _261
REMARK  111  A    between atoms: _261  and  _262
REMARK  112  A    between atoms: _261  and  _264
REMARK                            x       y       z     vdW  Elec       q    Type
REMARK                         _______ _______ _______ _____ _____    ______ ____
ROOT
ATOM      1  O   HOH     1      36.636   1.121  16.783  0.00  0.00    +0.000 OA
ENDROOT
TORSDOF 0
REMARK  Name = ../refined-set-2016/3d8y/3d8y_pocket.pdb
REMARK  112 active torsions:
REMARK  status: ('A' for Active; 'I' for Inactive)
REMARK    1  A    between atoms: _1  and  _3
REMARK    2  A    between atoms: _3  and  _4
REMARK    3  A    between atoms: _3  and  _6
REMARK    4  A    between atoms: _6  and  _7
REMARK    5  A    between atoms: _7  and  _8
REMARK    6  A    between atoms: _8  and  _9
REMARK    7  A    between atoms: _9  and  _10
REMARK    8  A    between atoms: _14  and  _16
REMARK    9  A    between atoms: _16  and  _17
REMARK   10  A    between atoms: _16  and  _19
REMARK   11  A    between atoms: _19  and  _20
REMARK   12  A    between atoms: _26  and  _28
REMARK   13  A    between atoms: _28  and  _29
REMARK   14  A    between atoms: _28  and  _31
REMARK   15  A    between atoms: _31  and  _32
REMARK   16  A    between atoms: _32  and  _33
REMARK   17  A    between atoms: _38  and  _40
REMARK   18  A    between atoms: _40  and  _41
REMARK   19  A    between atoms: _40  and  _43
REMARK   20  A    between atoms: _43  and  _44
REMARK   21  A    between atoms: _49  and  _51
REMARK   22  A    between atoms: _51  and  _52
REMARK   23  A    between atoms: _51  and  _54
REMARK   24  A    between atoms: _54  and  _55
REMARK   25  A    between atoms: _55  and  _56
REMARK   26  A    between atoms: _58  and  _60
REMARK   27  A    between atoms: _60  and  _61
REMARK   28  A    between atoms: _60  and  _63
REMARK   29  A    between atoms: _63  and  _64
REMARK   30  A    between atoms: _67  and  _69
REMARK   31  A    between atoms: _69  and  _70
REMARK   32  A    between atoms: _69  and  _72
REMARK   33  A    between atoms: _72  and  _73
REMARK   34  A    between atoms: _73  and  _74
REMARK   35  A    between atoms: _74  and  _75
REMARK   36  A    between atoms: _84  and  _86
REMARK   37  A    between atoms: _86  and  _87
REMARK   38  A    between atoms: _86  and  _89
REMARK   39  A    between atoms: _89  and  _90
REMARK   40  A    between atoms: _90  and  _91
REMARK   41  A    between atoms: _91  and  _92
REMARK   42  A    between atoms: _92  and  _93
REMARK   43  A    between atoms: _98  and  _99
REMARK   44  A    between atoms: _104  and  _106
REMARK   45  A    between atoms: _106  and  _107
REMARK   46  A    between atoms: _106  and  _109
REMARK   47  A    between atoms: _112  and  _114
REMARK   48  A    between atoms: _114  and  _115
REMARK   49  A    between atoms: _114  and  _117
REMARK   50  A    between atoms: _117  and  _118
REMARK   51  A    between atoms: _123  and  _125
REMARK   52  A    between atoms: _125  and  _126
REMARK   53  A    between atoms: _125  and  _128
REMARK   54  A    between atoms: _128  and  _129
REMARK   55  A    between atoms: _132  and  _134
REMARK   56  A    between atoms: _134  and  _135
REMARK   57  A    between atoms: _134  and  _137
REMARK   58  A    between atoms: _137  and  _138
REMARK   59  A    between atoms: _144  and  _146
REMARK   60  A    between atoms: _146  and  _147
REMARK   61  A    between atoms: _146  and  _149
REMARK   62  A    between atoms: _149  and  _150
REMARK   63  A    between atoms: _150  and  _151
REMARK   64  A    between atoms: _151  and  _152
REMARK   65  A    between atoms: _152  and  _153
REMARK   66  A    between atoms: _157  and  _159
REMARK   67  A    between atoms: _159  and  _160
REMARK   68  A    between atoms: _159  and  _162
REMARK   69  A    between atoms: _162  and  _163
REMARK   70  A    between atoms: _166  and  _168
REMARK   71  A    between atoms: _168  and  _169
REMARK   72  A    between atoms: _168  and  _171
REMARK   73  A    between atoms: _171  and  _172
REMARK   74  A    between atoms: _175  and  _177
REMARK   75  A    between atoms: _177  and  _178
REMARK   76  A    between atoms: _177  and  _180
REMARK   77  A    between atoms: _180  and  _181
REMARK   78  A    between atoms: _184  and  _186
REMARK   79  A    between atoms: _186  and  _187
REMARK   80  A    between atoms: _186  and  _189
REMARK   81  A    between atoms: _191  and  _193
REMARK   82  A    between atoms: _193  and  _194
REMARK   83  A    between atoms: _193  and  _196
REMARK   84  A    between atoms: _196  and  _197
REMARK   85  A    between atoms: _197  and  _198
REMARK   86  A    between atoms: _198  and  _199
REMARK   87  A    between atoms: _199  and  _200
REMARK   88  A    between atoms: _204  and  _206
REMARK   89  A    between atoms: _206  and  _207
REMARK   90  A    between atoms: _206  and  _209
REMARK   91  A    between atoms: _209  and  _210
REMARK   92  A    between atoms: _213  and  _215
REMARK   93  A    between atoms: _215  and  _216
REMARK   94  A    between atoms: _215  and  _218
REMARK   95  A    between atoms: _218  and  _219
REMARK   96  A    between atoms: _224  and  _226
REMARK   97  A    between atoms: _226  and  _227
REMARK   98  A    between atoms: _226  and  _229
REMARK   99  A    between atoms: _229  and  _230
REMARK  100  A    between atoms: _236  and  _238
REMARK  101  A    between atoms: _238  and  _239
REMARK  102  A    between atoms: _238  and  _241
REMARK  103  A    between atoms: _241  and  _242
REMARK  104  A    between atoms: _245  and  _247
REMARK  105  A    between atoms: _247  and  _248
REMARK  106  A    between atoms: _251  and  _253
REMARK  107  A    between atoms: _253  and  _254
REMARK  108  A    between atoms: _253  and  _256
REMARK  109  A    between atoms: _256  and  _257
REMARK  110  A    between atoms: _259  and  _261
REMARK  111  A    between atoms: _261  and  _262
REMARK  112  A    between atoms: _261  and  _264
REMARK                            x       y       z     vdW  Elec       q    Type
REMARK                         _______ _______ _______ _____ _____    ______ ____
ROOT
ATOM      1  O   HOH     1      30.334  -9.830   7.050  0.00  0.00    +0.000 OA
ENDROOT
TORSDOF 0
REMARK  Name = ../refined-set-2016/3d8y/3d8y_pocket.pdb
REMARK  112 active torsions:
REMARK  status: ('A' for Active; 'I' for Inactive)
REMARK    1  A    between atoms: _1  and  _3
REMARK    2  A    between atoms: _3  and  _4
REMARK    3  A    between atoms: _3  and  _6
REMARK    4  A    between atoms: _6  and  _7
REMARK    5  A    between atoms: _7  and  _8
REMARK    6  A    between atoms: _8  and  _9
REMARK    7  A    between atoms: _9  and  _10
REMARK    8  A    between atoms: _14  and  _16
REMARK    9  A    between atoms: _16  and  _17
REMARK   10  A    between atoms: _16  and  _19
REMARK   11  A    between atoms: _19  and  _20
REMARK   12  A    between atoms: _26  and  _28
REMARK   13  A    between atoms: _28  and  _29
REMARK   14  A    between atoms: _28  and  _31
REMARK   15  A    between atoms: _31  and  _32
REMARK   16  A    between atoms: _32  and  _33
REMARK   17  A    between atoms: _38  and  _40
REMARK   18  A    between atoms: _40  and  _41
REMARK   19  A    between atoms: _40  and  _43
REMARK   20  A    between atoms: _43  and  _44
REMARK   21  A    between atoms: _49  and  _51
REMARK   22  A    between atoms: _51  and  _52
REMARK   23  A    between atoms: _51  and  _54
REMARK   24  A    between atoms: _54  and  _55
REMARK   25  A    between atoms: _55  and  _56
REMARK   26  A    between atoms: _58  and  _60
REMARK   27  A    between atoms: _60  and  _61
REMARK   28  A    between atoms: _60  and  _63
REMARK   29  A    between atoms: _63  and  _64
REMARK   30  A    between atoms: _67  and  _69
REMARK   31  A    between atoms: _69  and  _70
REMARK   32  A    between atoms: _69  and  _72
REMARK   33  A    between atoms: _72  and  _73
REMARK   34  A    between atoms: _73  and  _74
REMARK   35  A    between atoms: _74  and  _75
REMARK   36  A    between atoms: _84  and  _86
REMARK   37  A    between atoms: _86  and  _87
REMARK   38  A    between atoms: _86  and  _89
REMARK   39  A    between atoms: _89  and  _90
REMARK   40  A    between atoms: _90  and  _91
REMARK   41  A    between atoms: _91  and  _92
REMARK   42  A    between atoms: _92  and  _93
REMARK   43  A    between atoms: _98  and  _99
REMARK   44  A    between atoms: _104  and  _106
REMARK   45  A    between atoms: _106  and  _107
REMARK   46  A    between atoms: _106  and  _109
REMARK   47  A    between atoms: _112  and  _114
REMARK   48  A    between atoms: _114  and  _115
REMARK   49  A    between atoms: _114  and  _117
REMARK   50  A    between atoms: _117  and  _118
REMARK   51  A    between atoms: _123  and  _125
REMARK   52  A    between atoms: _125  and  _126
REMARK   53  A    between atoms: _125  and  _128
REMARK   54  A    between atoms: _128  and  _129
REMARK   55  A    between atoms: _132  and  _134
REMARK   56  A    between atoms: _134  and  _135
REMARK   57  A    between atoms: _134  and  _137
REMARK   58  A    between atoms: _137  and  _138
REMARK   59  A    between atoms: _144  and  _146
REMARK   60  A    between atoms: _146  and  _147
REMARK   61  A    between atoms: _146  and  _149
REMARK   62  A    between atoms: _149  and  _150
REMARK   63  A    between atoms: _150  and  _151
REMARK   64  A    between atoms: _151  and  _152
REMARK   65  A    between atoms: _152  and  _153
REMARK   66  A    between atoms: _157  and  _159
REMARK   67  A    between atoms: _159  and  _160
REMARK   68  A    between atoms: _159  and  _162
REMARK   69  A    between atoms: _162  and  _163
REMARK   70  A    between atoms: _166  and  _168
REMARK   71  A    between atoms: _168  and  _169
REMARK   72  A    between atoms: _168  and  _171
REMARK   73  A    between atoms: _171  and  _172
REMARK   74  A    between atoms: _175  and  _177
REMARK   75  A    between atoms: _177  and  _178
REMARK   76  A    between atoms: _177  and  _180
REMARK   77  A    between atoms: _180  and  _181
REMARK   78  A    between atoms: _184  and  _186
REMARK   79  A    between atoms: _186  and  _187
REMARK   80  A    between atoms: _186  and  _189
REMARK   81  A    between atoms: _191  and  _193
REMARK   82  A    between atoms: _193  and  _194
REMARK   83  A    between atoms: _193  and  _196
REMARK   84  A    between atoms: _196  and  _197
REMARK   85  A    between atoms: _197  and  _198
REMARK   86  A    between atoms: _198  and  _199
REMARK   87  A    between atoms: _199  and  _200
REMARK   88  A    between atoms: _204  and  _206
REMARK   89  A    between atoms: _206  and  _207
REMARK   90  A    between atoms: _206  and  _209
REMARK   91  A    between atoms: _209  and  _210
REMARK   92  A    between atoms: _213  and  _215
REMARK   93  A    between atoms: _215  and  _216
REMARK   94  A    between atoms: _215  and  _218
REMARK   95  A    between atoms: _218  and  _219
REMARK   96  A    between atoms: _224  and  _226
REMARK   97  A    between atoms: _226  and  _227
REMARK   98  A    between atoms: _226  and  _229
REMARK   99  A    between atoms: _229  and  _230
REMARK  100  A    between atoms: _236  and  _238
REMARK  101  A    between atoms: _238  and  _239
REMARK  102  A    between atoms: _238  and  _241
REMARK  103  A    between atoms: _241  and  _242
REMARK  104  A    between atoms: _245  and  _247
REMARK  105  A    between atoms: _247  and  _248
REMARK  106  A    between atoms: _251  and  _253
REMARK  107  A    between atoms: _253  and  _254
REMARK  108  A    between atoms: _253  and  _256
REMARK  109  A    between atoms: _256  and  _257
REMARK  110  A    between atoms: _259  and  _261
REMARK  111  A    between atoms: _261  and  _262
REMARK  112  A    between atoms: _261  and  _264
REMARK                            x       y       z     vdW  Elec       q    Type
REMARK                         _______ _______ _______ _____ _____    ______ ____
ROOT
ATOM      1  O   HOH     1      36.281  -9.930   6.714  0.00  0.00    +0.000 OA
ENDROOT
TORSDOF 0
REMARK  Name = ../refined-set-2016/3d8y/3d8y_pocket.pdb
REMARK  112 active torsions:
REMARK  status: ('A' for Active; 'I' for Inactive)
REMARK    1  A    between atoms: _1  and  _3
REMARK    2  A    between atoms: _3  and  _4
REMARK    3  A    between atoms: _3  and  _6
REMARK    4  A    between atoms: _6  and  _7
REMARK    5  A    between atoms: _7  and  _8
REMARK    6  A    between atoms: _8  and  _9
REMARK    7  A    between atoms: _9  and  _10
REMARK    8  A    between atoms: _14  and  _16
REMARK    9  A    between atoms: _16  and  _17
REMARK   10  A    between atoms: _16  and  _19
REMARK   11  A    between atoms: _19  and  _20
REMARK   12  A    between atoms: _26  and  _28
REMARK   13  A    between atoms: _28  and  _29
REMARK   14  A    between atoms: _28  and  _31
REMARK   15  A    between atoms: _31  and  _32
REMARK   16  A    between atoms: _32  and  _33
REMARK   17  A    between atoms: _38  and  _40
REMARK   18  A    between atoms: _40  and  _41
REMARK   19  A    between atoms: _40  and  _43
REMARK   20  A    between atoms: _43  and  _44
REMARK   21  A    between atoms: _49  and  _51
REMARK   22  A    between atoms: _51  and  _52
REMARK   23  A    between atoms: _51  and  _54
REMARK   24  A    between atoms: _54  and  _55
REMARK   25  A    between atoms: _55  and  _56
REMARK   26  A    between atoms: _58  and  _60
REMARK   27  A    between atoms: _60  and  _61
REMARK   28  A    between atoms: _60  and  _63
REMARK   29  A    between atoms: _63  and  _64
REMARK   30  A    between atoms: _67  and  _69
REMARK   31  A    between atoms: _69  and  _70
REMARK   32  A    between atoms: _69  and  _72
REMARK   33  A    between atoms: _72  and  _73
REMARK   34  A    between atoms: _73  and  _74
REMARK   35  A    between atoms: _74  and  _75
REMARK   36  A    between atoms: _84  and  _86
REMARK   37  A    between atoms: _86  and  _87
REMARK   38  A    between atoms: _86  and  _89
REMARK   39  A    between atoms: _89  and  _90
REMARK   40  A    between atoms: _90  and  _91
REMARK   41  A    between atoms: _91  and  _92
REMARK   42  A    between atoms: _92  and  _93
REMARK   43  A    between atoms: _98  and  _99
REMARK   44  A    between atoms: _104  and  _106
REMARK   45  A    between atoms: _106  and  _107
REMARK   46  A    between atoms: _106  and  _109
REMARK   47  A    between atoms: _112  and  _114
REMARK   48  A    between atoms: _114  and  _115
REMARK   49  A    between atoms: _114  and  _117
REMARK   50  A    between atoms: _117  and  _118
REMARK   51  A    between atoms: _123  and  _125
REMARK   52  A    between atoms: _125  and  _126
REMARK   53  A    between atoms: _125  and  _128
REMARK   54  A    between atoms: _128  and  _129
REMARK   55  A    between atoms: _132  and  _134
REMARK   56  A    between atoms: _134  and  _135
REMARK   57  A    between atoms: _134  and  _137
REMARK   58  A    between atoms: _137  and  _138
REMARK   59  A    between atoms: _144  and  _146
REMARK   60  A    between atoms: _146  and  _147
REMARK   61  A    between atoms: _146  and  _149
REMARK   62  A    between atoms: _149  and  _150
REMARK   63  A    between atoms: _150  and  _151
REMARK   64  A    between atoms: _151  and  _152
REMARK   65  A    between atoms: _152  and  _153
REMARK   66  A    between atoms: _157  and  _159
REMARK   67  A    between atoms: _159  and  _160
REMARK   68  A    between atoms: _159  and  _162
REMARK   69  A    between atoms: _162  and  _163
REMARK   70  A    between atoms: _166  and  _168
REMARK   71  A    between atoms: _168  and  _169
REMARK   72  A    between atoms: _168  and  _171
REMARK   73  A    between atoms: _171  and  _172
REMARK   74  A    between atoms: _175  and  _177
REMARK   75  A    between atoms: _177  and  _178
REMARK   76  A    between atoms: _177  and  _180
REMARK   77  A    between atoms: _180  and  _181
REMARK   78  A    between atoms: _184  and  _186
REMARK   79  A    between atoms: _186  and  _187
REMARK   80  A    between atoms: _186  and  _189
REMARK   81  A    between atoms: _191  and  _193
REMARK   82  A    between atoms: _193  and  _194
REMARK   83  A    between atoms: _193  and  _196
REMARK   84  A    between atoms: _196  and  _197
REMARK   85  A    between atoms: _197  and  _198
REMARK   86  A    between atoms: _198  and  _199
REMARK   87  A    between atoms: _199  and  _200
REMARK   88  A    between atoms: _204  and  _206
REMARK   89  A    between atoms: _206  and  _207
REMARK   90  A    between atoms: _206  and  _209
REMARK   91  A    between atoms: _209  and  _210
REMARK   92  A    between atoms: _213  and  _215
REMARK   93  A    between atoms: _215  and  _216
REMARK   94  A    between atoms: _215  and  _218
REMARK   95  A    between atoms: _218  and  _219
REMARK   96  A    between atoms: _224  and  _226
REMARK   97  A    between atoms: _226  and  _227
REMARK   98  A    between atoms: _226  and  _229
REMARK   99  A    between atoms: _229  and  _230
REMARK  100  A    between atoms: _236  and  _238
REMARK  101  A    between atoms: _238  and  _239
REMARK  102  A    between atoms: _238  and  _241
REMARK  103  A    between atoms: _241  and  _242
REMARK  104  A    between atoms: _245  and  _247
REMARK  105  A    between atoms: _247  and  _248
REMARK  106  A    between atoms: _251  and  _253
REMARK  107  A    between atoms: _253  and  _254
REMARK  108  A    between atoms: _253  and  _256
REMARK  109  A    between atoms: _256  and  _257
REMARK  110  A    between atoms: _259  and  _261
REMARK  111  A    between atoms: _261  and  _262
REMARK  112  A    between atoms: _261  and  _264
REMARK                            x       y       z     vdW  Elec       q    Type
REMARK                         _______ _______ _______ _____ _____    ______ ____
ROOT
ATOM      1  O   HOH     1      45.563  -2.270  11.334  0.00  0.00    +0.000 OA
ENDROOT
TORSDOF 0
REMARK  Name = ../refined-set-2016/3d8y/3d8y_pocket.pdb
REMARK  112 active torsions:
REMARK  status: ('A' for Active; 'I' for Inactive)
REMARK    1  A    between atoms: _1  and  _3
REMARK    2  A    between atoms: _3  and  _4
REMARK    3  A    between atoms: _3  and  _6
REMARK    4  A    between atoms: _6  and  _7
REMARK    5  A    between atoms: _7  and  _8
REMARK    6  A    between atoms: _8  and  _9
REMARK    7  A    between atoms: _9  and  _10
REMARK    8  A    between atoms: _14  and  _16
REMARK    9  A    between atoms: _16  and  _17
REMARK   10  A    between atoms: _16  and  _19
REMARK   11  A    between atoms: _19  and  _20
REMARK   12  A    between atoms: _26  and  _28
REMARK   13  A    between atoms: _28  and  _29
REMARK   14  A    between atoms: _28  and  _31
REMARK   15  A    between atoms: _31  and  _32
REMARK   16  A    between atoms: _32  and  _33
REMARK   17  A    between atoms: _38  and  _40
REMARK   18  A    between atoms: _40  and  _41
REMARK   19  A    between atoms: _40  and  _43
REMARK   20  A    between atoms: _43  and  _44
REMARK   21  A    between atoms: _49  and  _51
REMARK   22  A    between atoms: _51  and  _52
REMARK   23  A    between atoms: _51  and  _54
REMARK   24  A    between atoms: _54  and  _55
REMARK   25  A    between atoms: _55  and  _56
REMARK   26  A    between atoms: _58  and  _60
REMARK   27  A    between atoms: _60  and  _61
REMARK   28  A    between atoms: _60  and  _63
REMARK   29  A    between atoms: _63  and  _64
REMARK   30  A    between atoms: _67  and  _69
REMARK   31  A    between atoms: _69  and  _70
REMARK   32  A    between atoms: _69  and  _72
REMARK   33  A    between atoms: _72  and  _73
REMARK   34  A    between atoms: _73  and  _74
REMARK   35  A    between atoms: _74  and  _75
REMARK   36  A    between atoms: _84  and  _86
REMARK   37  A    between atoms: _86  and  _87
REMARK   38  A    between atoms: _86  and  _89
REMARK   39  A    between atoms: _89  and  _90
REMARK   40  A    between atoms: _90  and  _91
REMARK   41  A    between atoms: _91  and  _92
REMARK   42  A    between atoms: _92  and  _93
REMARK   43  A    between atoms: _98  and  _99
REMARK   44  A    between atoms: _104  and  _106
REMARK   45  A    between atoms: _106  and  _107
REMARK   46  A    between atoms: _106  and  _109
REMARK   47  A    between atoms: _112  and  _114
REMARK   48  A    between atoms: _114  and  _115
REMARK   49  A    between atoms: _114  and  _117
REMARK   50  A    between atoms: _117  and  _118
REMARK   51  A    between atoms: _123  and  _125
REMARK   52  A    between atoms: _125  and  _126
REMARK   53  A    between atoms: _125  and  _128
REMARK   54  A    between atoms: _128  and  _129
REMARK   55  A    between atoms: _132  and  _134
REMARK   56  A    between atoms: _134  and  _135
REMARK   57  A    between atoms: _134  and  _137
REMARK   58  A    between atoms: _137  and  _138
REMARK   59  A    between atoms: _144  and  _146
REMARK   60  A    between atoms: _146  and  _147
REMARK   61  A    between atoms: _146  and  _149
REMARK   62  A    between atoms: _149  and  _150
REMARK   63  A    between atoms: _150  and  _151
REMARK   64  A    between atoms: _151  and  _152
REMARK   65  A    between atoms: _152  and  _153
REMARK   66  A    between atoms: _157  and  _159
REMARK   67  A    between atoms: _159  and  _160
REMARK   68  A    between atoms: _159  and  _162
REMARK   69  A    between atoms: _162  and  _163
REMARK   70  A    between atoms: _166  and  _168
REMARK   71  A    between atoms: _168  and  _169
REMARK   72  A    between atoms: _168  and  _171
REMARK   73  A    between atoms: _171  and  _172
REMARK   74  A    between atoms: _175  and  _177
REMARK   75  A    between atoms: _177  and  _178
REMARK   76  A    between atoms: _177  and  _180
REMARK   77  A    between atoms: _180  and  _181
REMARK   78  A    between atoms: _184  and  _186
REMARK   79  A    between atoms: _186  and  _187
REMARK   80  A    between atoms: _186  and  _189
REMARK   81  A    between atoms: _191  and  _193
REMARK   82  A    between atoms: _193  and  _194
REMARK   83  A    between atoms: _193  and  _196
REMARK   84  A    between atoms: _196  and  _197
REMARK   85  A    between atoms: _197  and  _198
REMARK   86  A    between atoms: _198  and  _199
REMARK   87  A    between atoms: _199  and  _200
REMARK   88  A    between atoms: _204  and  _206
REMARK   89  A    between atoms: _206  and  _207
REMARK   90  A    between atoms: _206  and  _209
REMARK   91  A    between atoms: _209  and  _210
REMARK   92  A    between atoms: _213  and  _215
REMARK   93  A    between atoms: _215  and  _216
REMARK   94  A    between atoms: _215  and  _218
REMARK   95  A    between atoms: _218  and  _219
REMARK   96  A    between atoms: _224  and  _226
REMARK   97  A    between atoms: _226  and  _227
REMARK   98  A    between atoms: _226  and  _229
REMARK   99  A    between atoms: _229  and  _230
REMARK  100  A    between atoms: _236  and  _238
REMARK  101  A    between atoms: _238  and  _239
REMARK  102  A    between atoms: _238  and  _241
REMARK  103  A    between atoms: _241  and  _242
REMARK  104  A    between atoms: _245  and  _247
REMARK  105  A    between atoms: _247  and  _248
REMARK  106  A    between atoms: _251  and  _253
REMARK  107  A    between atoms: _253  and  _254
REMARK  108  A    between atoms: _253  and  _256
REMARK  109  A    between atoms: _256  and  _257
REMARK  110  A    between atoms: _259  and  _261
REMARK  111  A    between atoms: _261  and  _262
REMARK  112  A    between atoms: _261  and  _264
REMARK                            x       y       z     vdW  Elec       q    Type
REMARK                         _______ _______ _______ _____ _____    ______ ____
ROOT
ATOM      1  O   HOH     1      40.072  -7.790  20.768  0.00  0.00    +0.000 OA
ENDROOT
TORSDOF 0
REMARK  Name = ../refined-set-2016/3d8y/3d8y_pocket.pdb
REMARK  112 active torsions:
REMARK  status: ('A' for Active; 'I' for Inactive)
REMARK    1  A    between atoms: _1  and  _3
REMARK    2  A    between atoms: _3  and  _4
REMARK    3  A    between atoms: _3  and  _6
REMARK    4  A    between atoms: _6  and  _7
REMARK    5  A    between atoms: _7  and  _8
REMARK    6  A    between atoms: _8  and  _9
REMARK    7  A    between atoms: _9  and  _10
REMARK    8  A    between atoms: _14  and  _16
REMARK    9  A    between atoms: _16  and  _17
REMARK   10  A    between atoms: _16  and  _19
REMARK   11  A    between atoms: _19  and  _20
REMARK   12  A    between atoms: _26  and  _28
REMARK   13  A    between atoms: _28  and  _29
REMARK   14  A    between atoms: _28  and  _31
REMARK   15  A    between atoms: _31  and  _32
REMARK   16  A    between atoms: _32  and  _33
REMARK   17  A    between atoms: _38  and  _40
REMARK   18  A    between atoms: _40  and  _41
REMARK   19  A    between atoms: _40  and  _43
REMARK   20  A    between atoms: _43  and  _44
REMARK   21  A    between atoms: _49  and  _51
REMARK   22  A    between atoms: _51  and  _52
REMARK   23  A    between atoms: _51  and  _54
REMARK   24  A    between atoms: _54  and  _55
REMARK   25  A    between atoms: _55  and  _56
REMARK   26  A    between atoms: _58  and  _60
REMARK   27  A    between atoms: _60  and  _61
REMARK   28  A    between atoms: _60  and  _63
REMARK   29  A    between atoms: _63  and  _64
REMARK   30  A    between atoms: _67  and  _69
REMARK   31  A    between atoms: _69  and  _70
REMARK   32  A    between atoms: _69  and  _72
REMARK   33  A    between atoms: _72  and  _73
REMARK   34  A    between atoms: _73  and  _74
REMARK   35  A    between atoms: _74  and  _75
REMARK   36  A    between atoms: _84  and  _86
REMARK   37  A    between atoms: _86  and  _87
REMARK   38  A    between atoms: _86  and  _89
REMARK   39  A    between atoms: _89  and  _90
REMARK   40  A    between atoms: _90  and  _91
REMARK   41  A    between atoms: _91  and  _92
REMARK   42  A    between atoms: _92  and  _93
REMARK   43  A    between atoms: _98  and  _99
REMARK   44  A    between atoms: _104  and  _106
REMARK   45  A    between atoms: _106  and  _107
REMARK   46  A    between atoms: _106  and  _109
REMARK   47  A    between atoms: _112  and  _114
REMARK   48  A    between atoms: _114  and  _115
REMARK   49  A    between atoms: _114  and  _117
REMARK   50  A    between atoms: _117  and  _118
REMARK   51  A    between atoms: _123  and  _125
REMARK   52  A    between atoms: _125  and  _126
REMARK   53  A    between atoms: _125  and  _128
REMARK   54  A    between atoms: _128  and  _129
REMARK   55  A    between atoms: _132  and  _134
REMARK   56  A    between atoms: _134  and  _135
REMARK   57  A    between atoms: _134  and  _137
REMARK   58  A    between atoms: _137  and  _138
REMARK   59  A    between atoms: _144  and  _146
REMARK   60  A    between atoms: _146  and  _147
REMARK   61  A    between atoms: _146  and  _149
REMARK   62  A    between atoms: _149  and  _150
REMARK   63  A    between atoms: _150  and  _151
REMARK   64  A    between atoms: _151  and  _152
REMARK   65  A    between atoms: _152  and  _153
REMARK   66  A    between atoms: _157  and  _159
REMARK   67  A    between atoms: _159  and  _160
REMARK   68  A    between atoms: _159  and  _162
REMARK   69  A    between atoms: _162  and  _163
REMARK   70  A    between atoms: _166  and  _168
REMARK   71  A    between atoms: _168  and  _169
REMARK   72  A    between atoms: _168  and  _171
REMARK   73  A    between atoms: _171  and  _172
REMARK   74  A    between atoms: _175  and  _177
REMARK   75  A    between atoms: _177  and  _178
REMARK   76  A    between atoms: _177  and  _180
REMARK   77  A    between atoms: _180  and  _181
REMARK   78  A    between atoms: _184  and  _186
REMARK   79  A    between atoms: _186  and  _187
REMARK   80  A    between atoms: _186  and  _189
REMARK   81  A    between atoms: _191  and  _193
REMARK   82  A    between atoms: _193  and  _194
REMARK   83  A    between atoms: _193  and  _196
REMARK   84  A    between atoms: _196  and  _197
REMARK   85  A    between atoms: _197  and  _198
REMARK   86  A    between atoms: _198  and  _199
REMARK   87  A    between atoms: _199  and  _200
REMARK   88  A    between atoms: _204  and  _206
REMARK   89  A    between atoms: _206  and  _207
REMARK   90  A    between atoms: _206  and  _209
REMARK   91  A    between atoms: _209  and  _210
REMARK   92  A    between atoms: _213  and  _215
REMARK   93  A    between atoms: _215  and  _216
REMARK   94  A    between atoms: _215  and  _218
REMARK   95  A    between atoms: _218  and  _219
REMARK   96  A    between atoms: _224  and  _226
REMARK   97  A    between atoms: _226  and  _227
REMARK   98  A    between atoms: _226  and  _229
REMARK   99  A    between atoms: _229  and  _230
REMARK  100  A    between atoms: _236  and  _238
REMARK  101  A    between atoms: _238  and  _239
REMARK  102  A    between atoms: _238  and  _241
REMARK  103  A    between atoms: _241  and  _242
REMARK  104  A    between atoms: _245  and  _247
REMARK  105  A    between atoms: _247  and  _248
REMARK  106  A    between atoms: _251  and  _253
REMARK  107  A    between atoms: _253  and  _254
REMARK  108  A    between atoms: _253  and  _256
REMARK  109  A    between atoms: _256  and  _257
REMARK  110  A    between atoms: _259  and  _261
REMARK  111  A    between atoms: _261  and  _262
REMARK  112  A    between atoms: _261  and  _264
REMARK                            x       y       z     vdW  Elec       q    Type
REMARK                         _______ _______ _______ _____ _____    ______ ____
ROOT
ATOM      1  O   HOH     1      39.598  -0.604  19.965  0.00  0.00    +0.000 OA
ENDROOT
TORSDOF 0
REMARK  Name = ../refined-set-2016/3d8y/3d8y_pocket.pdb
REMARK  112 active torsions:
REMARK  status: ('A' for Active; 'I' for Inactive)
REMARK    1  A    between atoms: _1  and  _3
REMARK    2  A    between atoms: _3  and  _4
REMARK    3  A    between atoms: _3  and  _6
REMARK    4  A    between atoms: _6  and  _7
REMARK    5  A    between atoms: _7  and  _8
REMARK    6  A    between atoms: _8  and  _9
REMARK    7  A    between atoms: _9  and  _10
REMARK    8  A    between atoms: _14  and  _16
REMARK    9  A    between atoms: _16  and  _17
REMARK   10  A    between atoms: _16  and  _19
REMARK   11  A    between atoms: _19  and  _20
REMARK   12  A    between atoms: _26  and  _28
REMARK   13  A    between atoms: _28  and  _29
REMARK   14  A    between atoms: _28  and  _31
REMARK   15  A    between atoms: _31  and  _32
REMARK   16  A    between atoms: _32  and  _33
REMARK   17  A    between atoms: _38  and  _40
REMARK   18  A    between atoms: _40  and  _41
REMARK   19  A    between atoms: _40  and  _43
REMARK   20  A    between atoms: _43  and  _44
REMARK   21  A    between atoms: _49  and  _51
REMARK   22  A    between atoms: _51  and  _52
REMARK   23  A    between atoms: _51  and  _54
REMARK   24  A    between atoms: _54  and  _55
REMARK   25  A    between atoms: _55  and  _56
REMARK   26  A    between atoms: _58  and  _60
REMARK   27  A    between atoms: _60  and  _61
REMARK   28  A    between atoms: _60  and  _63
REMARK   29  A    between atoms: _63  and  _64
REMARK   30  A    between atoms: _67  and  _69
REMARK   31  A    between atoms: _69  and  _70
REMARK   32  A    between atoms: _69  and  _72
REMARK   33  A    between atoms: _72  and  _73
REMARK   34  A    between atoms: _73  and  _74
REMARK   35  A    between atoms: _74  and  _75
REMARK   36  A    between atoms: _84  and  _86
REMARK   37  A    between atoms: _86  and  _87
REMARK   38  A    between atoms: _86  and  _89
REMARK   39  A    between atoms: _89  and  _90
REMARK   40  A    between atoms: _90  and  _91
REMARK   41  A    between atoms: _91  and  _92
REMARK   42  A    between atoms: _92  and  _93
REMARK   43  A    between atoms: _98  and  _99
REMARK   44  A    between atoms: _104  and  _106
REMARK   45  A    between atoms: _106  and  _107
REMARK   46  A    between atoms: _106  and  _109
REMARK   47  A    between atoms: _112  and  _114
REMARK   48  A    between atoms: _114  and  _115
REMARK   49  A    between atoms: _114  and  _117
REMARK   50  A    between atoms: _117  and  _118
REMARK   51  A    between atoms: _123  and  _125
REMARK   52  A    between atoms: _125  and  _126
REMARK   53  A    between atoms: _125  and  _128
REMARK   54  A    between atoms: _128  and  _129
REMARK   55  A    between atoms: _132  and  _134
REMARK   56  A    between atoms: _134  and  _135
REMARK   57  A    between atoms: _134  and  _137
REMARK   58  A    between atoms: _137  and  _138
REMARK   59  A    between atoms: _144  and  _146
REMARK   60  A    between atoms: _146  and  _147
REMARK   61  A    between atoms: _146  and  _149
REMARK   62  A    between atoms: _149  and  _150
REMARK   63  A    between atoms: _150  and  _151
REMARK   64  A    between atoms: _151  and  _152
REMARK   65  A    between atoms: _152  and  _153
REMARK   66  A    between atoms: _157  and  _159
REMARK   67  A    between atoms: _159  and  _160
REMARK   68  A    between atoms: _159  and  _162
REMARK   69  A    between atoms: _162  and  _163
REMARK   70  A    between atoms: _166  and  _168
REMARK   71  A    between atoms: _168  and  _169
REMARK   72  A    between atoms: _168  and  _171
REMARK   73  A    between atoms: _171  and  _172
REMARK   74  A    between atoms: _175  and  _177
REMARK   75  A    between atoms: _177  and  _178
REMARK   76  A    between atoms: _177  and  _180
REMARK   77  A    between atoms: _180  and  _181
REMARK   78  A    between atoms: _184  and  _186
REMARK   79  A    between atoms: _186  and  _187
REMARK   80  A    between atoms: _186  and  _189
REMARK   81  A    between atoms: _191  and  _193
REMARK   82  A    between atoms: _193  and  _194
REMARK   83  A    between atoms: _193  and  _196
REMARK   84  A    between atoms: _196  and  _197
REMARK   85  A    between atoms: _197  and  _198
REMARK   86  A    between atoms: _198  and  _199
REMARK   87  A    between atoms: _199  and  _200
REMARK   88  A    between atoms: _204  and  _206
REMARK   89  A    between atoms: _206  and  _207
REMARK   90  A    between atoms: _206  and  _209
REMARK   91  A    between atoms: _209  and  _210
REMARK   92  A    between atoms: _213  and  _215
REMARK   93  A    between atoms: _215  and  _216
REMARK   94  A    between atoms: _215  and  _218
REMARK   95  A    between atoms: _218  and  _219
REMARK   96  A    between atoms: _224  and  _226
REMARK   97  A    between atoms: _226  and  _227
REMARK   98  A    between atoms: _226  and  _229
REMARK   99  A    between atoms: _229  and  _230
REMARK  100  A    between atoms: _236  and  _238
REMARK  101  A    between atoms: _238  and  _239
REMARK  102  A    between atoms: _238  and  _241
REMARK  103  A    between atoms: _241  and  _242
REMARK  104  A    between atoms: _245  and  _247
REMARK  105  A    between atoms: _247  and  _248
REMARK  106  A    between atoms: _251  and  _253
REMARK  107  A    between atoms: _253  and  _254
REMARK  108  A    between atoms: _253  and  _256
REMARK  109  A    between atoms: _256  and  _257
REMARK  110  A    between atoms: _259  and  _261
REMARK  111  A    between atoms: _261  and  _262
REMARK  112  A    between atoms: _261  and  _264
REMARK                            x       y       z     vdW  Elec       q    Type
REMARK                         _______ _______ _______ _____ _____    ______ ____
ROOT
ATOM      1  O   HOH     1      32.288 -11.715  14.505  0.00  0.00    +0.000 OA
ENDROOT
TORSDOF 0
REMARK  Name = ../refined-set-2016/3d8y/3d8y_pocket.pdb
REMARK  112 active torsions:
REMARK  status: ('A' for Active; 'I' for Inactive)
REMARK    1  A    between atoms: _1  and  _3
REMARK    2  A    between atoms: _3  and  _4
REMARK    3  A    between atoms: _3  and  _6
REMARK    4  A    between atoms: _6  and  _7
REMARK    5  A    between atoms: _7  and  _8
REMARK    6  A    between atoms: _8  and  _9
REMARK    7  A    between atoms: _9  and  _10
REMARK    8  A    between atoms: _14  and  _16
REMARK    9  A    between atoms: _16  and  _17
REMARK   10  A    between atoms: _16  and  _19
REMARK   11  A    between atoms: _19  and  _20
REMARK   12  A    between atoms: _26  and  _28
REMARK   13  A    between atoms: _28  and  _29
REMARK   14  A    between atoms: _28  and  _31
REMARK   15  A    between atoms: _31  and  _32
REMARK   16  A    between atoms: _32  and  _33
REMARK   17  A    between atoms: _38  and  _40
REMARK   18  A    between atoms: _40  and  _41
REMARK   19  A    between atoms: _40  and  _43
REMARK   20  A    between atoms: _43  and  _44
REMARK   21  A    between atoms: _49  and  _51
REMARK   22  A    between atoms: _51  and  _52
REMARK   23  A    between atoms: _51  and  _54
REMARK   24  A    between atoms: _54  and  _55
REMARK   25  A    between atoms: _55  and  _56
REMARK   26  A    between atoms: _58  and  _60
REMARK   27  A    between atoms: _60  and  _61
REMARK   28  A    between atoms: _60  and  _63
REMARK   29  A    between atoms: _63  and  _64
REMARK   30  A    between atoms: _67  and  _69
REMARK   31  A    between atoms: _69  and  _70
REMARK   32  A    between atoms: _69  and  _72
REMARK   33  A    between atoms: _72  and  _73
REMARK   34  A    between atoms: _73  and  _74
REMARK   35  A    between atoms: _74  and  _75
REMARK   36  A    between atoms: _84  and  _86
REMARK   37  A    between atoms: _86  and  _87
REMARK   38  A    between atoms: _86  and  _89
REMARK   39  A    between atoms: _89  and  _90
REMARK   40  A    between atoms: _90  and  _91
REMARK   41  A    between atoms: _91  and  _92
REMARK   42  A    between atoms: _92  and  _93
REMARK   43  A    between atoms: _98  and  _99
REMARK   44  A    between atoms: _104  and  _106
REMARK   45  A    between atoms: _106  and  _107
REMARK   46  A    between atoms: _106  and  _109
REMARK   47  A    between atoms: _112  and  _114
REMARK   48  A    between atoms: _114  and  _115
REMARK   49  A    between atoms: _114  and  _117
REMARK   50  A    between atoms: _117  and  _118
REMARK   51  A    between atoms: _123  and  _125
REMARK   52  A    between atoms: _125  and  _126
REMARK   53  A    between atoms: _125  and  _128
REMARK   54  A    between atoms: _128  and  _129
REMARK   55  A    between atoms: _132  and  _134
REMARK   56  A    between atoms: _134  and  _135
REMARK   57  A    between atoms: _134  and  _137
REMARK   58  A    between atoms: _137  and  _138
REMARK   59  A    between atoms: _144  and  _146
REMARK   60  A    between atoms: _146  and  _147
REMARK   61  A    between atoms: _146  and  _149
REMARK   62  A    between atoms: _149  and  _150
REMARK   63  A    between atoms: _150  and  _151
REMARK   64  A    between atoms: _151  and  _152
REMARK   65  A    between atoms: _152  and  _153
REMARK   66  A    between atoms: _157  and  _159
REMARK   67  A    between atoms: _159  and  _160
REMARK   68  A    between atoms: _159  and  _162
REMARK   69  A    between atoms: _162  and  _163
REMARK   70  A    between atoms: _166  and  _168
REMARK   71  A    between atoms: _168  and  _169
REMARK   72  A    between atoms: _168  and  _171
REMARK   73  A    between atoms: _171  and  _172
REMARK   74  A    between atoms: _175  and  _177
REMARK   75  A    between atoms: _177  and  _178
REMARK   76  A    between atoms: _177  and  _180
REMARK   77  A    between atoms: _180  and  _181
REMARK   78  A    between atoms: _184  and  _186
REMARK   79  A    between atoms: _186  and  _187
REMARK   80  A    between atoms: _186  and  _189
REMARK   81  A    between atoms: _191  and  _193
REMARK   82  A    between atoms: _193  and  _194
REMARK   83  A    between atoms: _193  and  _196
REMARK   84  A    between atoms: _196  and  _197
REMARK   85  A    between atoms: _197  and  _198
REMARK   86  A    between atoms: _198  and  _199
REMARK   87  A    between atoms: _199  and  _200
REMARK   88  A    between atoms: _204  and  _206
REMARK   89  A    between atoms: _206  and  _207
REMARK   90  A    between atoms: _206  and  _209
REMARK   91  A    between atoms: _209  and  _210
REMARK   92  A    between atoms: _213  and  _215
REMARK   93  A    between atoms: _215  and  _216
REMARK   94  A    between atoms: _215  and  _218
REMARK   95  A    between atoms: _218  and  _219
REMARK   96  A    between atoms: _224  and  _226
REMARK   97  A    between atoms: _226  and  _227
REMARK   98  A    between atoms: _226  and  _229
REMARK   99  A    between atoms: _229  and  _230
REMARK  100  A    between atoms: _236  and  _238
REMARK  101  A    between atoms: _238  and  _239
REMARK  102  A    between atoms: _238  and  _241
REMARK  103  A    between atoms: _241  and  _242
REMARK  104  A    between atoms: _245  and  _247
REMARK  105  A    between atoms: _247  and  _248
REMARK  106  A    between atoms: _251  and  _253
REMARK  107  A    between atoms: _253  and  _254
REMARK  108  A    between atoms: _253  and  _256
REMARK  109  A    between atoms: _256  and  _257
REMARK  110  A    between atoms: _259  and  _261
REMARK  111  A    between atoms: _261  and  _262
REMARK  112  A    between atoms: _261  and  _264
REMARK                            x       y       z     vdW  Elec       q    Type
REMARK                         _______ _______ _______ _____ _____    ______ ____
ROOT
ATOM      1  O   HOH     1      33.604  -9.450  19.232  0.00  0.00    +0.000 OA
ENDROOT
TORSDOF 0
REMARK  Name = ../refined-set-2016/3d8y/3d8y_pocket.pdb
REMARK  112 active torsions:
REMARK  status: ('A' for Active; 'I' for Inactive)
REMARK    1  A    between atoms: _1  and  _3
REMARK    2  A    between atoms: _3  and  _4
REMARK    3  A    between atoms: _3  and  _6
REMARK    4  A    between atoms: _6  and  _7
REMARK    5  A    between atoms: _7  and  _8
REMARK    6  A    between atoms: _8  and  _9
REMARK    7  A    between atoms: _9  and  _10
REMARK    8  A    between atoms: _14  and  _16
REMARK    9  A    between atoms: _16  and  _17
REMARK   10  A    between atoms: _16  and  _19
REMARK   11  A    between atoms: _19  and  _20
REMARK   12  A    between atoms: _26  and  _28
REMARK   13  A    between atoms: _28  and  _29
REMARK   14  A    between atoms: _28  and  _31
REMARK   15  A    between atoms: _31  and  _32
REMARK   16  A    between atoms: _32  and  _33
REMARK   17  A    between atoms: _38  and  _40
REMARK   18  A    between atoms: _40  and  _41
REMARK   19  A    between atoms: _40  and  _43
REMARK   20  A    between atoms: _43  and  _44
REMARK   21  A    between atoms: _49  and  _51
REMARK   22  A    between atoms: _51  and  _52
REMARK   23  A    between atoms: _51  and  _54
REMARK   24  A    between atoms: _54  and  _55
REMARK   25  A    between atoms: _55  and  _56
REMARK   26  A    between atoms: _58  and  _60
REMARK   27  A    between atoms: _60  and  _61
REMARK   28  A    between atoms: _60  and  _63
REMARK   29  A    between atoms: _63  and  _64
REMARK   30  A    between atoms: _67  and  _69
REMARK   31  A    between atoms: _69  and  _70
REMARK   32  A    between atoms: _69  and  _72
REMARK   33  A    between atoms: _72  and  _73
REMARK   34  A    between atoms: _73  and  _74
REMARK   35  A    between atoms: _74  and  _75
REMARK   36  A    between atoms: _84  and  _86
REMARK   37  A    between atoms: _86  and  _87
REMARK   38  A    between atoms: _86  and  _89
REMARK   39  A    between atoms: _89  and  _90
REMARK   40  A    between atoms: _90  and  _91
REMARK   41  A    between atoms: _91  and  _92
REMARK   42  A    between atoms: _92  and  _93
REMARK   43  A    between atoms: _98  and  _99
REMARK   44  A    between atoms: _104  and  _106
REMARK   45  A    between atoms: _106  and  _107
REMARK   46  A    between atoms: _106  and  _109
REMARK   47  A    between atoms: _112  and  _114
REMARK   48  A    between atoms: _114  and  _115
REMARK   49  A    between atoms: _114  and  _117
REMARK   50  A    between atoms: _117  and  _118
REMARK   51  A    between atoms: _123  and  _125
REMARK   52  A    between atoms: _125  and  _126
REMARK   53  A    between atoms: _125  and  _128
REMARK   54  A    between atoms: _128  and  _129
REMARK   55  A    between atoms: _132  and  _134
REMARK   56  A    between atoms: _134  and  _135
REMARK   57  A    between atoms: _134  and  _137
REMARK   58  A    between atoms: _137  and  _138
REMARK   59  A    between atoms: _144  and  _146
REMARK   60  A    between atoms: _146  and  _147
REMARK   61  A    between atoms: _146  and  _149
REMARK   62  A    between atoms: _149  and  _150
REMARK   63  A    between atoms: _150  and  _151
REMARK   64  A    between atoms: _151  and  _152
REMARK   65  A    between atoms: _152  and  _153
REMARK   66  A    between atoms: _157  and  _159
REMARK   67  A    between atoms: _159  and  _160
REMARK   68  A    between atoms: _159  and  _162
REMARK   69  A    between atoms: _162  and  _163
REMARK   70  A    between atoms: _166  and  _168
REMARK   71  A    between atoms: _168  and  _169
REMARK   72  A    between atoms: _168  and  _171
REMARK   73  A    between atoms: _171  and  _172
REMARK   74  A    between atoms: _175  and  _177
REMARK   75  A    between atoms: _177  and  _178
REMARK   76  A    between atoms: _177  and  _180
REMARK   77  A    between atoms: _180  and  _181
REMARK   78  A    between atoms: _184  and  _186
REMARK   79  A    between atoms: _186  and  _187
REMARK   80  A    between atoms: _186  and  _189
REMARK   81  A    between atoms: _191  and  _193
REMARK   82  A    between atoms: _193  and  _194
REMARK   83  A    between atoms: _193  and  _196
REMARK   84  A    between atoms: _196  and  _197
REMARK   85  A    between atoms: _197  and  _198
REMARK   86  A    between atoms: _198  and  _199
REMARK   87  A    between atoms: _199  and  _200
REMARK   88  A    between atoms: _204  and  _206
REMARK   89  A    between atoms: _206  and  _207
REMARK   90  A    between atoms: _206  and  _209
REMARK   91  A    between atoms: _209  and  _210
REMARK   92  A    between atoms: _213  and  _215
REMARK   93  A    between atoms: _215  and  _216
REMARK   94  A    between atoms: _215  and  _218
REMARK   95  A    between atoms: _218  and  _219
REMARK   96  A    between atoms: _224  and  _226
REMARK   97  A    between atoms: _226  and  _227
REMARK   98  A    between atoms: _226  and  _229
REMARK   99  A    between atoms: _229  and  _230
REMARK  100  A    between atoms: _236  and  _238
REMARK  101  A    between atoms: _238  and  _239
REMARK  102  A    between atoms: _238  and  _241
REMARK  103  A    between atoms: _241  and  _242
REMARK  104  A    between atoms: _245  and  _247
REMARK  105  A    between atoms: _247  and  _248
REMARK  106  A    between atoms: _251  and  _253
REMARK  107  A    between atoms: _253  and  _254
REMARK  108  A    between atoms: _253  and  _256
REMARK  109  A    between atoms: _256  and  _257
REMARK  110  A    between atoms: _259  and  _261
REMARK  111  A    between atoms: _261  and  _262
REMARK  112  A    between atoms: _261  and  _264
REMARK                            x       y       z     vdW  Elec       q    Type
REMARK                         _______ _______ _______ _____ _____    ______ ____
ROOT
ATOM      1  O   HOH     1      37.981   3.803  20.453  0.00  0.00    +0.000 OA
ENDROOT
TORSDOF 0
REMARK  Name = ../refined-set-2016/3d8y/3d8y_pocket.pdb
REMARK  112 active torsions:
REMARK  status: ('A' for Active; 'I' for Inactive)
REMARK    1  A    between atoms: _1  and  _3
REMARK    2  A    between atoms: _3  and  _4
REMARK    3  A    between atoms: _3  and  _6
REMARK    4  A    between atoms: _6  and  _7
REMARK    5  A    between atoms: _7  and  _8
REMARK    6  A    between atoms: _8  and  _9
REMARK    7  A    between atoms: _9  and  _10
REMARK    8  A    between atoms: _14  and  _16
REMARK    9  A    between atoms: _16  and  _17
REMARK   10  A    between atoms: _16  and  _19
REMARK   11  A    between atoms: _19  and  _20
REMARK   12  A    between atoms: _26  and  _28
REMARK   13  A    between atoms: _28  and  _29
REMARK   14  A    between atoms: _28  and  _31
REMARK   15  A    between atoms: _31  and  _32
REMARK   16  A    between atoms: _32  and  _33
REMARK   17  A    between atoms: _38  and  _40
REMARK   18  A    between atoms: _40  and  _41
REMARK   19  A    between atoms: _40  and  _43
REMARK   20  A    between atoms: _43  and  _44
REMARK   21  A    between atoms: _49  and  _51
REMARK   22  A    between atoms: _51  and  _52
REMARK   23  A    between atoms: _51  and  _54
REMARK   24  A    between atoms: _54  and  _55
REMARK   25  A    between atoms: _55  and  _56
REMARK   26  A    between atoms: _58  and  _60
REMARK   27  A    between atoms: _60  and  _61
REMARK   28  A    between atoms: _60  and  _63
REMARK   29  A    between atoms: _63  and  _64
REMARK   30  A    between atoms: _67  and  _69
REMARK   31  A    between atoms: _69  and  _70
REMARK   32  A    between atoms: _69  and  _72
REMARK   33  A    between atoms: _72  and  _73
REMARK   34  A    between atoms: _73  and  _74
REMARK   35  A    between atoms: _74  and  _75
REMARK   36  A    between atoms: _84  and  _86
REMARK   37  A    between atoms: _86  and  _87
REMARK   38  A    between atoms: _86  and  _89
REMARK   39  A    between atoms: _89  and  _90
REMARK   40  A    between atoms: _90  and  _91
REMARK   41  A    between atoms: _91  and  _92
REMARK   42  A    between atoms: _92  and  _93
REMARK   43  A    between atoms: _98  and  _99
REMARK   44  A    between atoms: _104  and  _106
REMARK   45  A    between atoms: _106  and  _107
REMARK   46  A    between atoms: _106  and  _109
REMARK   47  A    between atoms: _112  and  _114
REMARK   48  A    between atoms: _114  and  _115
REMARK   49  A    between atoms: _114  and  _117
REMARK   50  A    between atoms: _117  and  _118
REMARK   51  A    between atoms: _123  and  _125
REMARK   52  A    between atoms: _125  and  _126
REMARK   53  A    between atoms: _125  and  _128
REMARK   54  A    between atoms: _128  and  _129
REMARK   55  A    between atoms: _132  and  _134
REMARK   56  A    between atoms: _134  and  _135
REMARK   57  A    between atoms: _134  and  _137
REMARK   58  A    between atoms: _137  and  _138
REMARK   59  A    between atoms: _144  and  _146
REMARK   60  A    between atoms: _146  and  _147
REMARK   61  A    between atoms: _146  and  _149
REMARK   62  A    between atoms: _149  and  _150
REMARK   63  A    between atoms: _150  and  _151
REMARK   64  A    between atoms: _151  and  _152
REMARK   65  A    between atoms: _152  and  _153
REMARK   66  A    between atoms: _157  and  _159
REMARK   67  A    between atoms: _159  and  _160
REMARK   68  A    between atoms: _159  and  _162
REMARK   69  A    between atoms: _162  and  _163
REMARK   70  A    between atoms: _166  and  _168
REMARK   71  A    between atoms: _168  and  _169
REMARK   72  A    between atoms: _168  and  _171
REMARK   73  A    between atoms: _171  and  _172
REMARK   74  A    between atoms: _175  and  _177
REMARK   75  A    between atoms: _177  and  _178
REMARK   76  A    between atoms: _177  and  _180
REMARK   77  A    between atoms: _180  and  _181
REMARK   78  A    between atoms: _184  and  _186
REMARK   79  A    between atoms: _186  and  _187
REMARK   80  A    between atoms: _186  and  _189
REMARK   81  A    between atoms: _191  and  _193
REMARK   82  A    between atoms: _193  and  _194
REMARK   83  A    between atoms: _193  and  _196
REMARK   84  A    between atoms: _196  and  _197
REMARK   85  A    between atoms: _197  and  _198
REMARK   86  A    between atoms: _198  and  _199
REMARK   87  A    between atoms: _199  and  _200
REMARK   88  A    between atoms: _204  and  _206
REMARK   89  A    between atoms: _206  and  _207
REMARK   90  A    between atoms: _206  and  _209
REMARK   91  A    between atoms: _209  and  _210
REMARK   92  A    between atoms: _213  and  _215
REMARK   93  A    between atoms: _215  and  _216
REMARK   94  A    between atoms: _215  and  _218
REMARK   95  A    between atoms: _218  and  _219
REMARK   96  A    between atoms: _224  and  _226
REMARK   97  A    between atoms: _226  and  _227
REMARK   98  A    between atoms: _226  and  _229
REMARK   99  A    between atoms: _229  and  _230
REMARK  100  A    between atoms: _236  and  _238
REMARK  101  A    between atoms: _238  and  _239
REMARK  102  A    between atoms: _238  and  _241
REMARK  103  A    between atoms: _241  and  _242
REMARK  104  A    between atoms: _245  and  _247
REMARK  105  A    between atoms: _247  and  _248
REMARK  106  A    between atoms: _251  and  _253
REMARK  107  A    between atoms: _253  and  _254
REMARK  108  A    between atoms: _253  and  _256
REMARK  109  A    between atoms: _256  and  _257
REMARK  110  A    between atoms: _259  and  _261
REMARK  111  A    between atoms: _261  and  _262
REMARK  112  A    between atoms: _261  and  _264
REMARK                            x       y       z     vdW  Elec       q    Type
REMARK                         _______ _______ _______ _____ _____    ______ ____
ROOT
ATOM      1  O   HOH     1      37.341  -2.588  16.633  0.00  0.00    +0.000 OA
ENDROOT
TORSDOF 0
REMARK  Name = ../refined-set-2016/3d8y/3d8y_pocket.pdb
REMARK  112 active torsions:
REMARK  status: ('A' for Active; 'I' for Inactive)
REMARK    1  A    between atoms: _1  and  _3
REMARK    2  A    between atoms: _3  and  _4
REMARK    3  A    between atoms: _3  and  _6
REMARK    4  A    between atoms: _6  and  _7
REMARK    5  A    between atoms: _7  and  _8
REMARK    6  A    between atoms: _8  and  _9
REMARK    7  A    between atoms: _9  and  _10
REMARK    8  A    between atoms: _14  and  _16
REMARK    9  A    between atoms: _16  and  _17
REMARK   10  A    between atoms: _16  and  _19
REMARK   11  A    between atoms: _19  and  _20
REMARK   12  A    between atoms: _26  and  _28
REMARK   13  A    between atoms: _28  and  _29
REMARK   14  A    between atoms: _28  and  _31
REMARK   15  A    between atoms: _31  and  _32
REMARK   16  A    between atoms: _32  and  _33
REMARK   17  A    between atoms: _38  and  _40
REMARK   18  A    between atoms: _40  and  _41
REMARK   19  A    between atoms: _40  and  _43
REMARK   20  A    between atoms: _43  and  _44
REMARK   21  A    between atoms: _49  and  _51
REMARK   22  A    between atoms: _51  and  _52
REMARK   23  A    between atoms: _51  and  _54
REMARK   24  A    between atoms: _54  and  _55
REMARK   25  A    between atoms: _55  and  _56
REMARK   26  A    between atoms: _58  and  _60
REMARK   27  A    between atoms: _60  and  _61
REMARK   28  A    between atoms: _60  and  _63
REMARK   29  A    between atoms: _63  and  _64
REMARK   30  A    between atoms: _67  and  _69
REMARK   31  A    between atoms: _69  and  _70
REMARK   32  A    between atoms: _69  and  _72
REMARK   33  A    between atoms: _72  and  _73
REMARK   34  A    between atoms: _73  and  _74
REMARK   35  A    between atoms: _74  and  _75
REMARK   36  A    between atoms: _84  and  _86
REMARK   37  A    between atoms: _86  and  _87
REMARK   38  A    between atoms: _86  and  _89
REMARK   39  A    between atoms: _89  and  _90
REMARK   40  A    between atoms: _90  and  _91
REMARK   41  A    between atoms: _91  and  _92
REMARK   42  A    between atoms: _92  and  _93
REMARK   43  A    between atoms: _98  and  _99
REMARK   44  A    between atoms: _104  and  _106
REMARK   45  A    between atoms: _106  and  _107
REMARK   46  A    between atoms: _106  and  _109
REMARK   47  A    between atoms: _112  and  _114
REMARK   48  A    between atoms: _114  and  _115
REMARK   49  A    between atoms: _114  and  _117
REMARK   50  A    between atoms: _117  and  _118
REMARK   51  A    between atoms: _123  and  _125
REMARK   52  A    between atoms: _125  and  _126
REMARK   53  A    between atoms: _125  and  _128
REMARK   54  A    between atoms: _128  and  _129
REMARK   55  A    between atoms: _132  and  _134
REMARK   56  A    between atoms: _134  and  _135
REMARK   57  A    between atoms: _134  and  _137
REMARK   58  A    between atoms: _137  and  _138
REMARK   59  A    between atoms: _144  and  _146
REMARK   60  A    between atoms: _146  and  _147
REMARK   61  A    between atoms: _146  and  _149
REMARK   62  A    between atoms: _149  and  _150
REMARK   63  A    between atoms: _150  and  _151
REMARK   64  A    between atoms: _151  and  _152
REMARK   65  A    between atoms: _152  and  _153
REMARK   66  A    between atoms: _157  and  _159
REMARK   67  A    between atoms: _159  and  _160
REMARK   68  A    between atoms: _159  and  _162
REMARK   69  A    between atoms: _162  and  _163
REMARK   70  A    between atoms: _166  and  _168
REMARK   71  A    between atoms: _168  and  _169
REMARK   72  A    between atoms: _168  and  _171
REMARK   73  A    between atoms: _171  and  _172
REMARK   74  A    between atoms: _175  and  _177
REMARK   75  A    between atoms: _177  and  _178
REMARK   76  A    between atoms: _177  and  _180
REMARK   77  A    between atoms: _180  and  _181
REMARK   78  A    between atoms: _184  and  _186
REMARK   79  A    between atoms: _186  and  _187
REMARK   80  A    between atoms: _186  and  _189
REMARK   81  A    between atoms: _191  and  _193
REMARK   82  A    between atoms: _193  and  _194
REMARK   83  A    between atoms: _193  and  _196
REMARK   84  A    between atoms: _196  and  _197
REMARK   85  A    between atoms: _197  and  _198
REMARK   86  A    between atoms: _198  and  _199
REMARK   87  A    between atoms: _199  and  _200
REMARK   88  A    between atoms: _204  and  _206
REMARK   89  A    between atoms: _206  and  _207
REMARK   90  A    between atoms: _206  and  _209
REMARK   91  A    between atoms: _209  and  _210
REMARK   92  A    between atoms: _213  and  _215
REMARK   93  A    between atoms: _215  and  _216
REMARK   94  A    between atoms: _215  and  _218
REMARK   95  A    between atoms: _218  and  _219
REMARK   96  A    between atoms: _224  and  _226
REMARK   97  A    between atoms: _226  and  _227
REMARK   98  A    between atoms: _226  and  _229
REMARK   99  A    between atoms: _229  and  _230
REMARK  100  A    between atoms: _236  and  _238
REMARK  101  A    between atoms: _238  and  _239
REMARK  102  A    between atoms: _238  and  _241
REMARK  103  A    between atoms: _241  and  _242
REMARK  104  A    between atoms: _245  and  _247
REMARK  105  A    between atoms: _247  and  _248
REMARK  106  A    between atoms: _251  and  _253
REMARK  107  A    between atoms: _253  and  _254
REMARK  108  A    between atoms: _253  and  _256
REMARK  109  A    between atoms: _256  and  _257
REMARK  110  A    between atoms: _259  and  _261
REMARK  111  A    between atoms: _261  and  _262
REMARK  112  A    between atoms: _261  and  _264
REMARK                            x       y       z     vdW  Elec       q    Type
REMARK                         _______ _______ _______ _____ _____    ______ ____
ROOT
ATOM      1  O   HOH     1      43.169   0.638  12.519  0.00  0.00    +0.000 OA
ENDROOT
TORSDOF 0
REMARK  Name = ../refined-set-2016/3d8y/3d8y_pocket.pdb
REMARK  112 active torsions:
REMARK  status: ('A' for Active; 'I' for Inactive)
REMARK    1  A    between atoms: _1  and  _3
REMARK    2  A    between atoms: _3  and  _4
REMARK    3  A    between atoms: _3  and  _6
REMARK    4  A    between atoms: _6  and  _7
REMARK    5  A    between atoms: _7  and  _8
REMARK    6  A    between atoms: _8  and  _9
REMARK    7  A    between atoms: _9  and  _10
REMARK    8  A    between atoms: _14  and  _16
REMARK    9  A    between atoms: _16  and  _17
REMARK   10  A    between atoms: _16  and  _19
REMARK   11  A    between atoms: _19  and  _20
REMARK   12  A    between atoms: _26  and  _28
REMARK   13  A    between atoms: _28  and  _29
REMARK   14  A    between atoms: _28  and  _31
REMARK   15  A    between atoms: _31  and  _32
REMARK   16  A    between atoms: _32  and  _33
REMARK   17  A    between atoms: _38  and  _40
REMARK   18  A    between atoms: _40  and  _41
REMARK   19  A    between atoms: _40  and  _43
REMARK   20  A    between atoms: _43  and  _44
REMARK   21  A    between atoms: _49  and  _51
REMARK   22  A    between atoms: _51  and  _52
REMARK   23  A    between atoms: _51  and  _54
REMARK   24  A    between atoms: _54  and  _55
REMARK   25  A    between atoms: _55  and  _56
REMARK   26  A    between atoms: _58  and  _60
REMARK   27  A    between atoms: _60  and  _61
REMARK   28  A    between atoms: _60  and  _63
REMARK   29  A    between atoms: _63  and  _64
REMARK   30  A    between atoms: _67  and  _69
REMARK   31  A    between atoms: _69  and  _70
REMARK   32  A    between atoms: _69  and  _72
REMARK   33  A    between atoms: _72  and  _73
REMARK   34  A    between atoms: _73  and  _74
REMARK   35  A    between atoms: _74  and  _75
REMARK   36  A    between atoms: _84  and  _86
REMARK   37  A    between atoms: _86  and  _87
REMARK   38  A    between atoms: _86  and  _89
REMARK   39  A    between atoms: _89  and  _90
REMARK   40  A    between atoms: _90  and  _91
REMARK   41  A    between atoms: _91  and  _92
REMARK   42  A    between atoms: _92  and  _93
REMARK   43  A    between atoms: _98  and  _99
REMARK   44  A    between atoms: _104  and  _106
REMARK   45  A    between atoms: _106  and  _107
REMARK   46  A    between atoms: _106  and  _109
REMARK   47  A    between atoms: _112  and  _114
REMARK   48  A    between atoms: _114  and  _115
REMARK   49  A    between atoms: _114  and  _117
REMARK   50  A    between atoms: _117  and  _118
REMARK   51  A    between atoms: _123  and  _125
REMARK   52  A    between atoms: _125  and  _126
REMARK   53  A    between atoms: _125  and  _128
REMARK   54  A    between atoms: _128  and  _129
REMARK   55  A    between atoms: _132  and  _134
REMARK   56  A    between atoms: _134  and  _135
REMARK   57  A    between atoms: _134  and  _137
REMARK   58  A    between atoms: _137  and  _138
REMARK   59  A    between atoms: _144  and  _146
REMARK   60  A    between atoms: _146  and  _147
REMARK   61  A    between atoms: _146  and  _149
REMARK   62  A    between atoms: _149  and  _150
REMARK   63  A    between atoms: _150  and  _151
REMARK   64  A    between atoms: _151  and  _152
REMARK   65  A    between atoms: _152  and  _153
REMARK   66  A    between atoms: _157  and  _159
REMARK   67  A    between atoms: _159  and  _160
REMARK   68  A    between atoms: _159  and  _162
REMARK   69  A    between atoms: _162  and  _163
REMARK   70  A    between atoms: _166  and  _168
REMARK   71  A    between atoms: _168  and  _169
REMARK   72  A    between atoms: _168  and  _171
REMARK   73  A    between atoms: _171  and  _172
REMARK   74  A    between atoms: _175  and  _177
REMARK   75  A    between atoms: _177  and  _178
REMARK   76  A    between atoms: _177  and  _180
REMARK   77  A    between atoms: _180  and  _181
REMARK   78  A    between atoms: _184  and  _186
REMARK   79  A    between atoms: _186  and  _187
REMARK   80  A    between atoms: _186  and  _189
REMARK   81  A    between atoms: _191  and  _193
REMARK   82  A    between atoms: _193  and  _194
REMARK   83  A    between atoms: _193  and  _196
REMARK   84  A    between atoms: _196  and  _197
REMARK   85  A    between atoms: _197  and  _198
REMARK   86  A    between atoms: _198  and  _199
REMARK   87  A    between atoms: _199  and  _200
REMARK   88  A    between atoms: _204  and  _206
REMARK   89  A    between atoms: _206  and  _207
REMARK   90  A    between atoms: _206  and  _209
REMARK   91  A    between atoms: _209  and  _210
REMARK   92  A    between atoms: _213  and  _215
REMARK   93  A    between atoms: _215  and  _216
REMARK   94  A    between atoms: _215  and  _218
REMARK   95  A    between atoms: _218  and  _219
REMARK   96  A    between atoms: _224  and  _226
REMARK   97  A    between atoms: _226  and  _227
REMARK   98  A    between atoms: _226  and  _229
REMARK   99  A    between atoms: _229  and  _230
REMARK  100  A    between atoms: _236  and  _238
REMARK  101  A    between atoms: _238  and  _239
REMARK  102  A    between atoms: _238  and  _241
REMARK  103  A    between atoms: _241  and  _242
REMARK  104  A    between atoms: _245  and  _247
REMARK  105  A    between atoms: _247  and  _248
REMARK  106  A    between atoms: _251  and  _253
REMARK  107  A    between atoms: _253  and  _254
REMARK  108  A    between atoms: _253  and  _256
REMARK  109  A    between atoms: _256  and  _257
REMARK  110  A    between atoms: _259  and  _261
REMARK  111  A    between atoms: _261  and  _262
REMARK  112  A    between atoms: _261  and  _264
REMARK                            x       y       z     vdW  Elec       q    Type
REMARK                         _______ _______ _______ _____ _____    ______ ____
ROOT
ATOM      1  O   HOH     1      42.737  -1.241  11.434  0.00  0.00    +0.000 OA
ENDROOT
TORSDOF 0
