REMARK  Name = ../refined-set-2016/3k5i/3k5i_pocket.pdb
REMARK  146 active torsions:
REMARK  status: ('A' for Active; 'I' for Inactive)
REMARK    1  A    between atoms: _1  and  _3
REMARK    2  A    between atoms: _3  and  _4
REMARK    3  A    between atoms: _3  and  _6
REMARK    4  A    between atoms: _6  and  _7
REMARK    5  A    between atoms: _10  and  _12
REMARK    6  A    between atoms: _12  and  _13
REMARK    7  A    between atoms: _15  and  _17
REMARK    8  A    between atoms: _17  and  _18
REMARK    9  A    between atoms: _20  and  _22
REMARK   10  A    between atoms: _22  and  _23
REMARK   11  A    between atoms: _25  and  _27
REMARK   12  A    between atoms: _27  and  _28
REMARK   13  A    between atoms: _27  and  _30
REMARK   14  A    between atoms: _30  and  _31
REMARK   15  A    between atoms: _31  and  _32
REMARK   16  A    between atoms: _37  and  _39
REMARK   17  A    between atoms: _39  and  _40
REMARK   18  A    between atoms: _39  and  _42
REMARK   19  A    between atoms: _42  and  _43
REMARK   20  A    between atoms: _46  and  _48
REMARK   21  A    between atoms: _48  and  _49
REMARK   22  A    between atoms: _51  and  _53
REMARK   23  A    between atoms: _53  and  _54
REMARK   24  A    between atoms: _53  and  _56
REMARK   25  A    between atoms: _56  and  _57
REMARK   26  A    between atoms: _57  and  _58
REMARK   27  A    between atoms: _58  and  _59
REMARK   28  A    between atoms: _68  and  _70
REMARK   29  A    between atoms: _70  and  _71
REMARK   30  A    between atoms: _70  and  _73
REMARK   31  A    between atoms: _73  and  _74
REMARK   32  A    between atoms: _74  and  _75
REMARK   33  A    between atoms: _77  and  _79
REMARK   34  A    between atoms: _79  and  _80
REMARK   35  A    between atoms: _79  and  _82
REMARK   36  A    between atoms: _82  and  _83
REMARK   37  A    between atoms: _86  and  _88
REMARK   38  A    between atoms: _88  and  _89
REMARK   39  A    between atoms: _88  and  _91
REMARK   40  A    between atoms: _91  and  _92
REMARK   41  A    between atoms: _95  and  _97
REMARK   42  A    between atoms: _97  and  _98
REMARK   43  A    between atoms: _97  and  _100
REMARK   44  A    between atoms: _100  and  _101
REMARK   45  A    between atoms: _104  and  _105
REMARK   46  A    between atoms: _110  and  _112
REMARK   47  A    between atoms: _112  and  _113
REMARK   48  A    between atoms: _116  and  _118
REMARK   49  A    between atoms: _118  and  _119
REMARK   50  A    between atoms: _118  and  _121
REMARK   51  A    between atoms: _121  and  _122
REMARK   52  A    between atoms: _128  and  _130
REMARK   53  A    between atoms: _130  and  _131
REMARK   54  A    between atoms: _134  and  _136
REMARK   55  A    between atoms: _136  and  _137
REMARK   56  A    between atoms: _136  and  _139
REMARK   57  A    between atoms: _139  and  _140
REMARK   58  A    between atoms: _140  and  _141
REMARK   59  A    between atoms: _144  and  _146
REMARK   60  A    between atoms: _146  and  _147
REMARK   61  A    between atoms: _146  and  _149
REMARK   62  A    between atoms: _149  and  _150
REMARK   63  A    between atoms: _153  and  _155
REMARK   64  A    between atoms: _155  and  _156
REMARK   65  A    between atoms: _155  and  _158
REMARK   66  A    between atoms: _158  and  _159
REMARK   67  A    between atoms: _159  and  _160
REMARK   68  A    between atoms: _163  and  _165
REMARK   69  A    between atoms: _165  and  _166
REMARK   70  A    between atoms: _165  and  _168
REMARK   71  A    between atoms: _168  and  _169
REMARK   72  A    between atoms: _174  and  _176
REMARK   73  A    between atoms: _176  and  _177
REMARK   74  A    between atoms: _180  and  _182
REMARK   75  A    between atoms: _182  and  _183
REMARK   76  A    between atoms: _182  and  _185
REMARK   77  A    between atoms: _185  and  _186
REMARK   78  A    between atoms: _186  and  _187
REMARK   79  A    between atoms: _187  and  _188
REMARK   80  A    between atoms: _197  and  _199
REMARK   81  A    between atoms: _199  and  _200
REMARK   82  A    between atoms: _199  and  _202
REMARK   83  A    between atoms: _202  and  _203
REMARK   84  A    between atoms: _206  and  _208
REMARK   85  A    between atoms: _208  and  _209
REMARK   86  A    between atoms: _208  and  _211
REMARK   87  A    between atoms: _211  and  _212
REMARK   88  A    between atoms: _217  and  _219
REMARK   89  A    between atoms: _219  and  _220
REMARK   90  A    between atoms: _219  and  _222
REMARK   91  A    between atoms: _222  and  _223
REMARK   92  A    between atoms: _228  and  _230
REMARK   93  A    between atoms: _230  and  _231
REMARK   94  A    between atoms: _230  and  _233
REMARK   95  A    between atoms: _233  and  _234
REMARK   96  A    between atoms: _239  and  _241
REMARK   97  A    between atoms: _241  and  _242
REMARK   98  A    between atoms: _241  and  _244
REMARK   99  A    between atoms: _244  and  _245
REMARK  100  A    between atoms: _251  and  _253
REMARK  101  A    between atoms: _253  and  _254
REMARK  102  A    between atoms: _253  and  _256
REMARK  103  A    between atoms: _256  and  _257
REMARK  104  A    between atoms: _262  and  _264
REMARK  105  A    between atoms: _264  and  _265
REMARK  106  A    between atoms: _267  and  _269
REMARK  107  A    between atoms: _269  and  _270
REMARK  108  A    between atoms: _269  and  _272
REMARK  109  A    between atoms: _272  and  _273
REMARK  110  A    between atoms: _278  and  _279
REMARK  111  A    between atoms: _281  and  _283
REMARK  112  A    between atoms: _283  and  _284
REMARK  113  A    between atoms: _283  and  _286
REMARK  114  A    between atoms: _286  and  _287
REMARK  115  A    between atoms: _287  and  _288
REMARK  116  A    between atoms: _288  and  _289
REMARK  117  A    between atoms: _289  and  _290
REMARK  118  A    between atoms: _294  and  _296
REMARK  119  A    between atoms: _296  and  _297
REMARK  120  A    between atoms: _300  and  _302
REMARK  121  A    between atoms: _302  and  _303
REMARK  122  A    between atoms: _302  and  _305
REMARK  123  A    between atoms: _305  and  _306
REMARK  124  A    between atoms: _306  and  _307
REMARK  125  A    between atoms: _307  and  _308
REMARK  126  A    between atoms: _308  and  _309
REMARK  127  A    between atoms: _313  and  _315
REMARK  128  A    between atoms: _315  and  _316
REMARK  129  A    between atoms: _318  and  _320
REMARK  130  A    between atoms: _320  and  _321
REMARK  131  A    between atoms: _320  and  _323
REMARK  132  A    between atoms: _323  and  _324
REMARK  133  A    between atoms: _324  and  _325
REMARK  134  A    between atoms: _325  and  _326
REMARK  135  A    between atoms: _335  and  _337
REMARK  136  A    between atoms: _337  and  _338
REMARK  137  A    between atoms: _337  and  _340
REMARK  138  A    between atoms: _340  and  _341
REMARK  139  A    between atoms: _341  and  _342
REMARK  140  A    between atoms: _342  and  _343
REMARK  141  A    between atoms: _343  and  _344
REMARK  142  A    between atoms: _348  and  _350
REMARK  143  A    between atoms: _350  and  _351
REMARK  144  A    between atoms: _350  and  _353
REMARK  145  A    between atoms: _353  and  _354
REMARK  146  A    between atoms: _354  and  _355
REMARK                            x       y       z     vdW  Elec       q    Type
REMARK                         _______ _______ _______ _____ _____    ______ ____
ROOT
ATOM      1  CA  LEU A   6     -18.649  12.471  42.044  0.00  0.00    +0.149 C 
ENDROOT
BRANCH   1   2
ATOM      2  C   LEU A   6     -18.629  13.862  41.400  0.00  0.00    +0.241 C 
ATOM      3  N   GLY A   7     -19.432  14.774  41.956  0.00  0.00    -0.295 N 
ATOM      4  H   GLY A   7     -20.059  14.538  42.752  0.00  0.00    +0.150 HD
ATOM      5  O   LEU A   6     -17.884  14.119  40.424  0.00  0.00    -0.273 OA
BRANCH   3   6
ATOM      6  CA  GLY A   7     -19.385  16.121  41.389  0.00  0.00    +0.176 C 
BRANCH   6   7
ATOM      7  C   GLY A   7     -17.931  16.659  41.489  0.00  0.00    +0.243 C 
ATOM      8  N   ARG A   8     -17.216  16.231  42.514  0.00  0.00    -0.297 N 
ATOM      9  H   ARG A   8     -17.598  15.531  43.182  0.00  0.00    +0.150 HD
ATOM     10  O   GLY A   7     -17.415  17.438  40.677  0.00  0.00    -0.273 OA
BRANCH   8  11
ATOM     11  CA  ARG A   8     -15.884  16.769  42.675  0.00  0.00    +0.149 C 
BRANCH  11  12
ATOM     12  C   ARG A   8     -15.005  16.451  41.522  0.00  0.00    +0.241 C 
ATOM     13  N   MET A   9     -14.922  15.184  41.125  0.00  0.00    -0.297 N 
ATOM     14  H   MET A   9     -15.485  14.468  41.627  0.00  0.00    +0.150 HD
ATOM     15  O   ARG A   8     -14.394  17.376  41.036  0.00  0.00    -0.273 OA
BRANCH  13  16
ATOM     16  CA  MET A   9     -14.073  14.752  40.012  0.00  0.00    +0.149 C 
BRANCH  16  17
ATOM     17  C   MET A   9     -14.547  15.336  38.712  0.00  0.00    +0.241 C 
ATOM     18  N   LEU A  10     -15.857  15.500  38.647  0.00  0.00    -0.298 N 
ATOM     19  H   LEU A  10     -16.457  15.177  39.433  0.00  0.00    +0.150 HD
ATOM     20  O   MET A   9     -13.760  15.767  37.843  0.00  0.00    -0.273 OA
BRANCH  18  21
ATOM     21  CA  LEU A  10     -16.476  16.137  37.469  0.00  0.00    +0.137 C 
BRANCH  21  22
ATOM     22  C   LEU A  10     -15.955  17.608  37.453  0.00  0.00    +0.227 C 
ATOM     23  O   LEU A  10     -15.533  18.145  36.427  0.00  0.00    -0.286 OA
ENDBRANCH  21  22
BRANCH  21  24
ATOM     24  CB  LEU A  10     -17.994  16.089  37.591  0.00  0.00    +0.028 C 
BRANCH  24  25
ATOM     25  CG  LEU A  10     -18.617  16.402  36.227  0.00  0.00    +0.002 C 
ATOM     26  CD2 LEU A  10     -20.144  16.421  36.261  0.00  0.00    +0.000 C 
ATOM     27  CD1 LEU A  10     -18.320  15.290  35.321  0.00  0.00    +0.000 C 
ENDBRANCH  24  25
ENDBRANCH  21  24
ENDBRANCH  18  21
ENDBRANCH  16  17
BRANCH  16  28
ATOM     28  CB  MET A   9     -13.951  13.231  40.023  0.00  0.00    +0.041 C 
BRANCH  28  29
ATOM     29  CG  MET A   9     -13.211  12.788  41.295  0.00  0.00    +0.060 C 
BRANCH  29  30
ATOM     30  SD  MET A   9     -12.857  10.992  41.473  0.00  0.00    -0.139 S 
ATOM     31  CE  MET A   9     -14.689  10.530  42.027  0.00  0.00    +0.069 C 
ENDBRANCH  29  30
ENDBRANCH  28  29
ENDBRANCH  16  28
ENDBRANCH  13  16
ENDBRANCH  11  12
BRANCH  11  32
ATOM     32  CB  ARG A   8     -15.205  16.252  43.946  0.00  0.00    +0.033 C 
BRANCH  32  33
ATOM     33  CG  ARG A   8     -13.966  17.030  44.355  0.00  0.00    +0.045 C 
BRANCH  33  34
ATOM     34  CD  ARG A   8     -13.617  16.799  45.840  0.00  0.00    +0.174 C 
BRANCH  34  35
ATOM     35  NE  ARG A   8     -12.162  16.932  46.106  0.00  0.00    -0.265 N 
ATOM     36  CZ  ARG A   8     -11.642  17.856  46.912  0.00  0.00    +0.342 C 
ATOM     37  NH2 ARG A   8     -12.461  18.704  47.516  0.00  0.00    -0.292 N 
ATOM     38 HH21 ARG A   8     -12.078  19.434  48.150  0.00  0.00    +0.255 HD
ATOM     39 HH22 ARG A   8     -13.487  18.640  47.356  0.00  0.00    +0.255 HD
ATOM     40  NH1 ARG A   8     -10.339  17.938  47.150  0.00  0.00    -0.292 N 
ATOM     41 HH11 ARG A   8      -9.972  18.674  47.786  0.00  0.00    +0.255 HD
ATOM     42 HH12 ARG A   8      -9.685  17.266  46.700  0.00  0.00    +0.255 HD
ATOM     43  HE  ARG A   8     -11.514  16.267  45.637  0.00  0.00    +0.259 HD
ENDBRANCH  34  35
ENDBRANCH  33  34
ENDBRANCH  32  33
ENDBRANCH  11  32
ENDBRANCH   8  11
ENDBRANCH   6   7
ENDBRANCH   3   6
ENDBRANCH   1   2
BRANCH   1  45
ATOM     44  C   GLN A   5     -17.172  12.868  43.923  0.00  0.00    +0.241 C 
ATOM     45  N   LEU A   6     -18.375  12.547  43.472  0.00  0.00    -0.297 N 
ATOM     46  H   LEU A   6     -19.138  12.346  44.150  0.00  0.00    +0.150 HD
ATOM     47  O   GLN A   5     -16.231  13.087  43.179  0.00  0.00    -0.273 OA
BRANCH  44  48
ATOM     48  CA  GLN A   5     -16.956  12.917  45.430  0.00  0.00    +0.149 C 
BRANCH  48  50
ATOM     49  C   GLY A   4     -18.811  14.365  45.833  0.00  0.00    +0.243 C 
ATOM     50  N   GLN A   5     -18.171  13.241  46.129  0.00  0.00    -0.297 N 
ATOM     51  H   GLN A   5     -18.544  12.601  46.859  0.00  0.00    +0.150 HD
ATOM     52  O   GLY A   4     -18.394  15.114  44.951  0.00  0.00    -0.273 OA
BRANCH  49  53
ATOM     53  CA  GLY A   4     -20.093  14.720  46.623  0.00  0.00    +0.176 C 
BRANCH  53  56
ATOM     54  C   GLY A   3     -20.573  17.094  45.984  0.00  0.00    +0.243 C 
ATOM     55  O   GLY A   3     -19.756  17.618  46.712  0.00  0.00    -0.273 OA
ATOM     56  N   GLY A   4     -20.811  15.783  45.926  0.00  0.00    -0.295 N 
ATOM     57  H   GLY A   4     -21.597  15.484  45.315  0.00  0.00    +0.150 HD
BRANCH  54  58
ATOM     58  CA  GLY A   3     -21.471  17.983  45.121  0.00  0.00    +0.176 C 
BRANCH  58  60
ATOM     59  C   GLY A   2     -23.578  17.595  43.948  0.00  0.00    +0.243 C 
ATOM     60  N   GLY A   3     -22.839  17.480  45.051  0.00  0.00    -0.295 N 
ATOM     61  H   GLY A   3     -23.250  17.018  45.887  0.00  0.00    +0.150 HD
ATOM     62  O   GLY A   2     -23.166  18.116  42.945  0.00  0.00    -0.273 OA
BRANCH  59  63
ATOM     63  CA  GLY A   2     -24.986  17.028  43.935  0.00  0.00    +0.176 C 
BRANCH  63  65
ATOM     64  C   LEU A   1     -26.204  17.398  41.906  0.00  0.00    +0.238 C 
ATOM     65  N   GLY A   2     -25.853  17.854  43.113  0.00  0.00    -0.296 N 
ATOM     66  H   GLY A   2     -26.192  18.776  43.454  0.00  0.00    +0.150 HD
ATOM     67  O   LEU A   1     -25.807  16.301  41.448  0.00  0.00    -0.274 OA
BRANCH  64  68
ATOM     68  CA  LEU A   1     -27.122  18.307  41.060  0.00  0.00    +0.145 C 
BRANCH  68  69
ATOM     69  N   LEU A   1     -26.374  18.562  39.817  0.00  0.00    -0.238 NA
ATOM     70  H   LEU A   1     -26.556  17.956  38.992  0.00  0.00    +0.142 HD
ENDBRANCH  68  69
BRANCH  68  71
ATOM     71  CB  LEU A   1     -28.359  17.504  40.692  0.00  0.00    +0.026 C 
BRANCH  71  72
ATOM     72  CG  LEU A   1     -29.294  18.187  39.703  0.00  0.00    +0.002 C 
ATOM     73  CD2 LEU A   1     -30.083  19.151  40.558  0.00  0.00    +0.000 C 
ATOM     74  CD1 LEU A   1     -30.235  17.268  38.875  0.00  0.00    +0.000 C 
ENDBRANCH  71  72
ENDBRANCH  68  71
ENDBRANCH  64  68
ENDBRANCH  63  65
ENDBRANCH  59  63
ENDBRANCH  58  60
ENDBRANCH  54  58
ENDBRANCH  53  56
ENDBRANCH  49  53
ENDBRANCH  48  50
BRANCH  48  75
ATOM     75  CB  GLN A   5     -16.313  11.602  45.924  0.00  0.00    +0.039 C 
BRANCH  75  76
ATOM     76  CG  GLN A   5     -17.112  10.307  45.714  0.00  0.00    +0.087 C 
BRANCH  76  77
ATOM     77  CD  GLN A   5     -18.205  10.137  46.756  0.00  0.00    +0.219 C 
ATOM     78  OE1 GLN A   5     -18.703  11.129  47.313  0.00  0.00    -0.275 OA
ATOM     79  NE2 GLN A   5     -18.605   8.898  46.994  0.00  0.00    -0.329 N 
ATOM     80 HE21 GLN A   5     -19.371   8.721  47.675  0.00  0.00    +0.145 HD
ATOM     81 HE22 GLN A   5     -18.154   8.102  46.500  0.00  0.00    +0.145 HD
ENDBRANCH  76  77
ENDBRANCH  75  76
ENDBRANCH  48  75
ENDBRANCH  44  48
ENDBRANCH   1  45
BRANCH   1  82
ATOM     82  CB  LEU A   6     -19.932  11.643  41.813  0.00  0.00    +0.029 C 
BRANCH  82  83
ATOM     83  CG  LEU A   6     -19.887  10.173  42.299  0.00  0.00    +0.002 C 
ATOM     84  CD2 LEU A   6     -21.167   9.399  41.863  0.00  0.00    +0.000 C 
ATOM     85  CD1 LEU A   6     -18.726   9.458  41.563  0.00  0.00    +0.000 C 
ENDBRANCH  82  83
ENDBRANCH   1  82
TORSDOF 36
REMARK  Name = ../refined-set-2016/3k5i/3k5i_pocket.pdb
REMARK  146 active torsions:
REMARK  status: ('A' for Active; 'I' for Inactive)
REMARK    1  A    between atoms: _1  and  _3
REMARK    2  A    between atoms: _3  and  _4
REMARK    3  A    between atoms: _3  and  _6
REMARK    4  A    between atoms: _6  and  _7
REMARK    5  A    between atoms: _10  and  _12
REMARK    6  A    between atoms: _12  and  _13
REMARK    7  A    between atoms: _15  and  _17
REMARK    8  A    between atoms: _17  and  _18
REMARK    9  A    between atoms: _20  and  _22
REMARK   10  A    between atoms: _22  and  _23
REMARK   11  A    between atoms: _25  and  _27
REMARK   12  A    between atoms: _27  and  _28
REMARK   13  A    between atoms: _27  and  _30
REMARK   14  A    between atoms: _30  and  _31
REMARK   15  A    between atoms: _31  and  _32
REMARK   16  A    between atoms: _37  and  _39
REMARK   17  A    between atoms: _39  and  _40
REMARK   18  A    between atoms: _39  and  _42
REMARK   19  A    between atoms: _42  and  _43
REMARK   20  A    between atoms: _46  and  _48
REMARK   21  A    between atoms: _48  and  _49
REMARK   22  A    between atoms: _51  and  _53
REMARK   23  A    between atoms: _53  and  _54
REMARK   24  A    between atoms: _53  and  _56
REMARK   25  A    between atoms: _56  and  _57
REMARK   26  A    between atoms: _57  and  _58
REMARK   27  A    between atoms: _58  and  _59
REMARK   28  A    between atoms: _68  and  _70
REMARK   29  A    between atoms: _70  and  _71
REMARK   30  A    between atoms: _70  and  _73
REMARK   31  A    between atoms: _73  and  _74
REMARK   32  A    between atoms: _74  and  _75
REMARK   33  A    between atoms: _77  and  _79
REMARK   34  A    between atoms: _79  and  _80
REMARK   35  A    between atoms: _79  and  _82
REMARK   36  A    between atoms: _82  and  _83
REMARK   37  A    between atoms: _86  and  _88
REMARK   38  A    between atoms: _88  and  _89
REMARK   39  A    between atoms: _88  and  _91
REMARK   40  A    between atoms: _91  and  _92
REMARK   41  A    between atoms: _95  and  _97
REMARK   42  A    between atoms: _97  and  _98
REMARK   43  A    between atoms: _97  and  _100
REMARK   44  A    between atoms: _100  and  _101
REMARK   45  A    between atoms: _104  and  _105
REMARK   46  A    between atoms: _110  and  _112
REMARK   47  A    between atoms: _112  and  _113
REMARK   48  A    between atoms: _116  and  _118
REMARK   49  A    between atoms: _118  and  _119
REMARK   50  A    between atoms: _118  and  _121
REMARK   51  A    between atoms: _121  and  _122
REMARK   52  A    between atoms: _128  and  _130
REMARK   53  A    between atoms: _130  and  _131
REMARK   54  A    between atoms: _134  and  _136
REMARK   55  A    between atoms: _136  and  _137
REMARK   56  A    between atoms: _136  and  _139
REMARK   57  A    between atoms: _139  and  _140
REMARK   58  A    between atoms: _140  and  _141
REMARK   59  A    between atoms: _144  and  _146
REMARK   60  A    between atoms: _146  and  _147
REMARK   61  A    between atoms: _146  and  _149
REMARK   62  A    between atoms: _149  and  _150
REMARK   63  A    between atoms: _153  and  _155
REMARK   64  A    between atoms: _155  and  _156
REMARK   65  A    between atoms: _155  and  _158
REMARK   66  A    between atoms: _158  and  _159
REMARK   67  A    between atoms: _159  and  _160
REMARK   68  A    between atoms: _163  and  _165
REMARK   69  A    between atoms: _165  and  _166
REMARK   70  A    between atoms: _165  and  _168
REMARK   71  A    between atoms: _168  and  _169
REMARK   72  A    between atoms: _174  and  _176
REMARK   73  A    between atoms: _176  and  _177
REMARK   74  A    between atoms: _180  and  _182
REMARK   75  A    between atoms: _182  and  _183
REMARK   76  A    between atoms: _182  and  _185
REMARK   77  A    between atoms: _185  and  _186
REMARK   78  A    between atoms: _186  and  _187
REMARK   79  A    between atoms: _187  and  _188
REMARK   80  A    between atoms: _197  and  _199
REMARK   81  A    between atoms: _199  and  _200
REMARK   82  A    between atoms: _199  and  _202
REMARK   83  A    between atoms: _202  and  _203
REMARK   84  A    between atoms: _206  and  _208
REMARK   85  A    between atoms: _208  and  _209
REMARK   86  A    between atoms: _208  and  _211
REMARK   87  A    between atoms: _211  and  _212
REMARK   88  A    between atoms: _217  and  _219
REMARK   89  A    between atoms: _219  and  _220
REMARK   90  A    between atoms: _219  and  _222
REMARK   91  A    between atoms: _222  and  _223
REMARK   92  A    between atoms: _228  and  _230
REMARK   93  A    between atoms: _230  and  _231
REMARK   94  A    between atoms: _230  and  _233
REMARK   95  A    between atoms: _233  and  _234
REMARK   96  A    between atoms: _239  and  _241
REMARK   97  A    between atoms: _241  and  _242
REMARK   98  A    between atoms: _241  and  _244
REMARK   99  A    between atoms: _244  and  _245
REMARK  100  A    between atoms: _251  and  _253
REMARK  101  A    between atoms: _253  and  _254
REMARK  102  A    between atoms: _253  and  _256
REMARK  103  A    between atoms: _256  and  _257
REMARK  104  A    between atoms: _262  and  _264
REMARK  105  A    between atoms: _264  and  _265
REMARK  106  A    between atoms: _267  and  _269
REMARK  107  A    between atoms: _269  and  _270
REMARK  108  A    between atoms: _269  and  _272
REMARK  109  A    between atoms: _272  and  _273
REMARK  110  A    between atoms: _278  and  _279
REMARK  111  A    between atoms: _281  and  _283
REMARK  112  A    between atoms: _283  and  _284
REMARK  113  A    between atoms: _283  and  _286
REMARK  114  A    between atoms: _286  and  _287
REMARK  115  A    between atoms: _287  and  _288
REMARK  116  A    between atoms: _288  and  _289
REMARK  117  A    between atoms: _289  and  _290
REMARK  118  A    between atoms: _294  and  _296
REMARK  119  A    between atoms: _296  and  _297
REMARK  120  A    between atoms: _300  and  _302
REMARK  121  A    between atoms: _302  and  _303
REMARK  122  A    between atoms: _302  and  _305
REMARK  123  A    between atoms: _305  and  _306
REMARK  124  A    between atoms: _306  and  _307
REMARK  125  A    between atoms: _307  and  _308
REMARK  126  A    between atoms: _308  and  _309
REMARK  127  A    between atoms: _313  and  _315
REMARK  128  A    between atoms: _315  and  _316
REMARK  129  A    between atoms: _318  and  _320
REMARK  130  A    between atoms: _320  and  _321
REMARK  131  A    between atoms: _320  and  _323
REMARK  132  A    between atoms: _323  and  _324
REMARK  133  A    between atoms: _324  and  _325
REMARK  134  A    between atoms: _325  and  _326
REMARK  135  A    between atoms: _335  and  _337
REMARK  136  A    between atoms: _337  and  _338
REMARK  137  A    between atoms: _337  and  _340
REMARK  138  A    between atoms: _340  and  _341
REMARK  139  A    between atoms: _341  and  _342
REMARK  140  A    between atoms: _342  and  _343
REMARK  141  A    between atoms: _343  and  _344
REMARK  142  A    between atoms: _348  and  _350
REMARK  143  A    between atoms: _350  and  _351
REMARK  144  A    between atoms: _350  and  _353
REMARK  145  A    between atoms: _353  and  _354
REMARK  146  A    between atoms: _354  and  _355
REMARK                            x       y       z     vdW  Elec       q    Type
REMARK                         _______ _______ _______ _____ _____    ______ ____
ROOT
ATOM      1  CA  ASP A   1     -25.622  21.055  47.118  0.00  0.00    +0.144 C 
ENDROOT
BRANCH   1   2
ATOM      2  N   ASP A   1     -25.827  21.981  45.980  0.00  0.00    -0.239 NA
ATOM      3  H   ASP A   1     -25.765  23.006  46.146  0.00  0.00    +0.142 HD
ENDBRANCH   1   2
BRANCH   1   4
ATOM      4  C   ASP A   1     -25.403  22.026  48.309  0.00  0.00    +0.225 C 
ATOM      5  O   ASP A   1     -25.460  23.263  48.171  0.00  0.00    -0.287 OA
ENDBRANCH   1   4
BRANCH   1   6
ATOM      6  CB  ASP A   1     -24.412  20.093  46.843  0.00  0.00    +0.139 C 
BRANCH   6   7
ATOM      7  CG  ASP A   1     -24.418  18.887  47.746  0.00  0.00    +0.367 C 
ATOM      8  OD2 ASP A   1     -25.126  18.976  48.742  0.00  0.00    -0.246 OA
ATOM      9  OD1 ASP A   1     -23.818  17.823  47.538  0.00  0.00    -0.246 OA
ENDBRANCH   6   7
ENDBRANCH   1   6
TORSDOF 4
REMARK  Name = ../refined-set-2016/3k5i/3k5i_pocket.pdb
REMARK  146 active torsions:
REMARK  status: ('A' for Active; 'I' for Inactive)
REMARK    1  A    between atoms: _1  and  _3
REMARK    2  A    between atoms: _3  and  _4
REMARK    3  A    between atoms: _3  and  _6
REMARK    4  A    between atoms: _6  and  _7
REMARK    5  A    between atoms: _10  and  _12
REMARK    6  A    between atoms: _12  and  _13
REMARK    7  A    between atoms: _15  and  _17
REMARK    8  A    between atoms: _17  and  _18
REMARK    9  A    between atoms: _20  and  _22
REMARK   10  A    between atoms: _22  and  _23
REMARK   11  A    between atoms: _25  and  _27
REMARK   12  A    between atoms: _27  and  _28
REMARK   13  A    between atoms: _27  and  _30
REMARK   14  A    between atoms: _30  and  _31
REMARK   15  A    between atoms: _31  and  _32
REMARK   16  A    between atoms: _37  and  _39
REMARK   17  A    between atoms: _39  and  _40
REMARK   18  A    between atoms: _39  and  _42
REMARK   19  A    between atoms: _42  and  _43
REMARK   20  A    between atoms: _46  and  _48
REMARK   21  A    between atoms: _48  and  _49
REMARK   22  A    between atoms: _51  and  _53
REMARK   23  A    between atoms: _53  and  _54
REMARK   24  A    between atoms: _53  and  _56
REMARK   25  A    between atoms: _56  and  _57
REMARK   26  A    between atoms: _57  and  _58
REMARK   27  A    between atoms: _58  and  _59
REMARK   28  A    between atoms: _68  and  _70
REMARK   29  A    between atoms: _70  and  _71
REMARK   30  A    between atoms: _70  and  _73
REMARK   31  A    between atoms: _73  and  _74
REMARK   32  A    between atoms: _74  and  _75
REMARK   33  A    between atoms: _77  and  _79
REMARK   34  A    between atoms: _79  and  _80
REMARK   35  A    between atoms: _79  and  _82
REMARK   36  A    between atoms: _82  and  _83
REMARK   37  A    between atoms: _86  and  _88
REMARK   38  A    between atoms: _88  and  _89
REMARK   39  A    between atoms: _88  and  _91
REMARK   40  A    between atoms: _91  and  _92
REMARK   41  A    between atoms: _95  and  _97
REMARK   42  A    between atoms: _97  and  _98
REMARK   43  A    between atoms: _97  and  _100
REMARK   44  A    between atoms: _100  and  _101
REMARK   45  A    between atoms: _104  and  _105
REMARK   46  A    between atoms: _110  and  _112
REMARK   47  A    between atoms: _112  and  _113
REMARK   48  A    between atoms: _116  and  _118
REMARK   49  A    between atoms: _118  and  _119
REMARK   50  A    between atoms: _118  and  _121
REMARK   51  A    between atoms: _121  and  _122
REMARK   52  A    between atoms: _128  and  _130
REMARK   53  A    between atoms: _130  and  _131
REMARK   54  A    between atoms: _134  and  _136
REMARK   55  A    between atoms: _136  and  _137
REMARK   56  A    between atoms: _136  and  _139
REMARK   57  A    between atoms: _139  and  _140
REMARK   58  A    between atoms: _140  and  _141
REMARK   59  A    between atoms: _144  and  _146
REMARK   60  A    between atoms: _146  and  _147
REMARK   61  A    between atoms: _146  and  _149
REMARK   62  A    between atoms: _149  and  _150
REMARK   63  A    between atoms: _153  and  _155
REMARK   64  A    between atoms: _155  and  _156
REMARK   65  A    between atoms: _155  and  _158
REMARK   66  A    between atoms: _158  and  _159
REMARK   67  A    between atoms: _159  and  _160
REMARK   68  A    between atoms: _163  and  _165
REMARK   69  A    between atoms: _165  and  _166
REMARK   70  A    between atoms: _165  and  _168
REMARK   71  A    between atoms: _168  and  _169
REMARK   72  A    between atoms: _174  and  _176
REMARK   73  A    between atoms: _176  and  _177
REMARK   74  A    between atoms: _180  and  _182
REMARK   75  A    between atoms: _182  and  _183
REMARK   76  A    between atoms: _182  and  _185
REMARK   77  A    between atoms: _185  and  _186
REMARK   78  A    between atoms: _186  and  _187
REMARK   79  A    between atoms: _187  and  _188
REMARK   80  A    between atoms: _197  and  _199
REMARK   81  A    between atoms: _199  and  _200
REMARK   82  A    between atoms: _199  and  _202
REMARK   83  A    between atoms: _202  and  _203
REMARK   84  A    between atoms: _206  and  _208
REMARK   85  A    between atoms: _208  and  _209
REMARK   86  A    between atoms: _208  and  _211
REMARK   87  A    between atoms: _211  and  _212
REMARK   88  A    between atoms: _217  and  _219
REMARK   89  A    between atoms: _219  and  _220
REMARK   90  A    between atoms: _219  and  _222
REMARK   91  A    between atoms: _222  and  _223
REMARK   92  A    between atoms: _228  and  _230
REMARK   93  A    between atoms: _230  and  _231
REMARK   94  A    between atoms: _230  and  _233
REMARK   95  A    between atoms: _233  and  _234
REMARK   96  A    between atoms: _239  and  _241
REMARK   97  A    between atoms: _241  and  _242
REMARK   98  A    between atoms: _241  and  _244
REMARK   99  A    between atoms: _244  and  _245
REMARK  100  A    between atoms: _251  and  _253
REMARK  101  A    between atoms: _253  and  _254
REMARK  102  A    between atoms: _253  and  _256
REMARK  103  A    between atoms: _256  and  _257
REMARK  104  A    between atoms: _262  and  _264
REMARK  105  A    between atoms: _264  and  _265
REMARK  106  A    between atoms: _267  and  _269
REMARK  107  A    between atoms: _269  and  _270
REMARK  108  A    between atoms: _269  and  _272
REMARK  109  A    between atoms: _272  and  _273
REMARK  110  A    between atoms: _278  and  _279
REMARK  111  A    between atoms: _281  and  _283
REMARK  112  A    between atoms: _283  and  _284
REMARK  113  A    between atoms: _283  and  _286
REMARK  114  A    between atoms: _286  and  _287
REMARK  115  A    between atoms: _287  and  _288
REMARK  116  A    between atoms: _288  and  _289
REMARK  117  A    between atoms: _289  and  _290
REMARK  118  A    between atoms: _294  and  _296
REMARK  119  A    between atoms: _296  and  _297
REMARK  120  A    between atoms: _300  and  _302
REMARK  121  A    between atoms: _302  and  _303
REMARK  122  A    between atoms: _302  and  _305
REMARK  123  A    between atoms: _305  and  _306
REMARK  124  A    between atoms: _306  and  _307
REMARK  125  A    between atoms: _307  and  _308
REMARK  126  A    between atoms: _308  and  _309
REMARK  127  A    between atoms: _313  and  _315
REMARK  128  A    between atoms: _315  and  _316
REMARK  129  A    between atoms: _318  and  _320
REMARK  130  A    between atoms: _320  and  _321
REMARK  131  A    between atoms: _320  and  _323
REMARK  132  A    between atoms: _323  and  _324
REMARK  133  A    between atoms: _324  and  _325
REMARK  134  A    between atoms: _325  and  _326
REMARK  135  A    between atoms: _335  and  _337
REMARK  136  A    between atoms: _337  and  _338
REMARK  137  A    between atoms: _337  and  _340
REMARK  138  A    between atoms: _340  and  _341
REMARK  139  A    between atoms: _341  and  _342
REMARK  140  A    between atoms: _342  and  _343
REMARK  141  A    between atoms: _343  and  _344
REMARK  142  A    between atoms: _348  and  _350
REMARK  143  A    between atoms: _350  and  _351
REMARK  144  A    between atoms: _350  and  _353
REMARK  145  A    between atoms: _353  and  _354
REMARK  146  A    between atoms: _354  and  _355
REMARK                            x       y       z     vdW  Elec       q    Type
REMARK                         _______ _______ _______ _____ _____    ______ ____
ROOT
ATOM      1  C   SER A   1     -18.136  20.100  48.925  0.00  0.00    +0.244 C 
ATOM      2  N   PRO A   2     -17.775  18.819  48.936  0.00  0.00    -0.272 N 
ATOM      3  CD  PRO A   2     -18.300  17.699  49.742  0.00  0.00    +0.094 C 
ATOM      4  CG  PRO A   2     -17.380  16.536  49.384  0.00  0.00    +0.024 C 
ATOM      5  CB  PRO A   2     -16.647  16.962  48.133  0.00  0.00    +0.031 C 
ATOM      6  CA  PRO A   2     -16.487  18.457  48.384  0.00  0.00    +0.152 C 
ATOM      7  O   SER A   1     -17.356  20.919  48.416  0.00  0.00    -0.273 OA
ENDROOT
BRANCH   6   8
ATOM      8  C   PRO A   2     -16.252  19.120  47.066  0.00  0.00    +0.241 C 
ATOM      9  O   PRO A   2     -15.182  19.643  46.765  0.00  0.00    -0.273 OA
ATOM     10  N   ALA A   3     -17.275  19.085  46.247  0.00  0.00    -0.298 N 
ATOM     11  H   ALA A   3     -18.183  18.635  46.482  0.00  0.00    +0.150 HD
BRANCH  10  12
ATOM     12  CA  ALA A   3     -17.007  19.745  44.968  0.00  0.00    +0.137 C 
ATOM     13  CB  ALA A   3     -18.042  19.403  43.965  0.00  0.00    +0.030 C 
BRANCH  12  14
ATOM     14  C   ALA A   3     -16.818  21.246  44.958  0.00  0.00    +0.227 C 
ATOM     15  O   ALA A   3     -15.966  21.835  44.290  0.00  0.00    -0.286 OA
ENDBRANCH  12  14
ENDBRANCH  10  12
ENDBRANCH   6   8
BRANCH   1  16
ATOM     16  CA  SER A   1     -19.516  20.557  49.537  0.00  0.00    +0.175 C 
BRANCH  16  17
ATOM     17  N   SER A   1     -19.464  21.991  49.810  0.00  0.00    -0.236 NA
ATOM     18  H   SER A   1     -20.053  22.672  49.289  0.00  0.00    +0.142 HD
ENDBRANCH  16  17
BRANCH  16  19
ATOM     19  CB  SER A   1     -20.806  20.332  48.718  0.00  0.00    +0.163 C 
BRANCH  19  20
ATOM     20  OG  SER A   1     -20.592  19.826  47.400  0.00  0.00    -0.380 OA
ATOM     21  H   SER A   1     -20.129  18.952  47.454  0.00  0.00    +0.211 HD
ENDBRANCH  19  20
ENDBRANCH  16  19
ENDBRANCH   1  16
TORSDOF 7
REMARK  Name = ../refined-set-2016/3k5i/3k5i_pocket.pdb
REMARK  146 active torsions:
REMARK  status: ('A' for Active; 'I' for Inactive)
REMARK    1  A    between atoms: _1  and  _3
REMARK    2  A    between atoms: _3  and  _4
REMARK    3  A    between atoms: _3  and  _6
REMARK    4  A    between atoms: _6  and  _7
REMARK    5  A    between atoms: _10  and  _12
REMARK    6  A    between atoms: _12  and  _13
REMARK    7  A    between atoms: _15  and  _17
REMARK    8  A    between atoms: _17  and  _18
REMARK    9  A    between atoms: _20  and  _22
REMARK   10  A    between atoms: _22  and  _23
REMARK   11  A    between atoms: _25  and  _27
REMARK   12  A    between atoms: _27  and  _28
REMARK   13  A    between atoms: _27  and  _30
REMARK   14  A    between atoms: _30  and  _31
REMARK   15  A    between atoms: _31  and  _32
REMARK   16  A    between atoms: _37  and  _39
REMARK   17  A    between atoms: _39  and  _40
REMARK   18  A    between atoms: _39  and  _42
REMARK   19  A    between atoms: _42  and  _43
REMARK   20  A    between atoms: _46  and  _48
REMARK   21  A    between atoms: _48  and  _49
REMARK   22  A    between atoms: _51  and  _53
REMARK   23  A    between atoms: _53  and  _54
REMARK   24  A    between atoms: _53  and  _56
REMARK   25  A    between atoms: _56  and  _57
REMARK   26  A    between atoms: _57  and  _58
REMARK   27  A    between atoms: _58  and  _59
REMARK   28  A    between atoms: _68  and  _70
REMARK   29  A    between atoms: _70  and  _71
REMARK   30  A    between atoms: _70  and  _73
REMARK   31  A    between atoms: _73  and  _74
REMARK   32  A    between atoms: _74  and  _75
REMARK   33  A    between atoms: _77  and  _79
REMARK   34  A    between atoms: _79  and  _80
REMARK   35  A    between atoms: _79  and  _82
REMARK   36  A    between atoms: _82  and  _83
REMARK   37  A    between atoms: _86  and  _88
REMARK   38  A    between atoms: _88  and  _89
REMARK   39  A    between atoms: _88  and  _91
REMARK   40  A    between atoms: _91  and  _92
REMARK   41  A    between atoms: _95  and  _97
REMARK   42  A    between atoms: _97  and  _98
REMARK   43  A    between atoms: _97  and  _100
REMARK   44  A    between atoms: _100  and  _101
REMARK   45  A    between atoms: _104  and  _105
REMARK   46  A    between atoms: _110  and  _112
REMARK   47  A    between atoms: _112  and  _113
REMARK   48  A    between atoms: _116  and  _118
REMARK   49  A    between atoms: _118  and  _119
REMARK   50  A    between atoms: _118  and  _121
REMARK   51  A    between atoms: _121  and  _122
REMARK   52  A    between atoms: _128  and  _130
REMARK   53  A    between atoms: _130  and  _131
REMARK   54  A    between atoms: _134  and  _136
REMARK   55  A    between atoms: _136  and  _137
REMARK   56  A    between atoms: _136  and  _139
REMARK   57  A    between atoms: _139  and  _140
REMARK   58  A    between atoms: _140  and  _141
REMARK   59  A    between atoms: _144  and  _146
REMARK   60  A    between atoms: _146  and  _147
REMARK   61  A    between atoms: _146  and  _149
REMARK   62  A    between atoms: _149  and  _150
REMARK   63  A    between atoms: _153  and  _155
REMARK   64  A    between atoms: _155  and  _156
REMARK   65  A    between atoms: _155  and  _158
REMARK   66  A    between atoms: _158  and  _159
REMARK   67  A    between atoms: _159  and  _160
REMARK   68  A    between atoms: _163  and  _165
REMARK   69  A    between atoms: _165  and  _166
REMARK   70  A    between atoms: _165  and  _168
REMARK   71  A    between atoms: _168  and  _169
REMARK   72  A    between atoms: _174  and  _176
REMARK   73  A    between atoms: _176  and  _177
REMARK   74  A    between atoms: _180  and  _182
REMARK   75  A    between atoms: _182  and  _183
REMARK   76  A    between atoms: _182  and  _185
REMARK   77  A    between atoms: _185  and  _186
REMARK   78  A    between atoms: _186  and  _187
REMARK   79  A    between atoms: _187  and  _188
REMARK   80  A    between atoms: _197  and  _199
REMARK   81  A    between atoms: _199  and  _200
REMARK   82  A    between atoms: _199  and  _202
REMARK   83  A    between atoms: _202  and  _203
REMARK   84  A    between atoms: _206  and  _208
REMARK   85  A    between atoms: _208  and  _209
REMARK   86  A    between atoms: _208  and  _211
REMARK   87  A    between atoms: _211  and  _212
REMARK   88  A    between atoms: _217  and  _219
REMARK   89  A    between atoms: _219  and  _220
REMARK   90  A    between atoms: _219  and  _222
REMARK   91  A    between atoms: _222  and  _223
REMARK   92  A    between atoms: _228  and  _230
REMARK   93  A    between atoms: _230  and  _231
REMARK   94  A    between atoms: _230  and  _233
REMARK   95  A    between atoms: _233  and  _234
REMARK   96  A    between atoms: _239  and  _241
REMARK   97  A    between atoms: _241  and  _242
REMARK   98  A    between atoms: _241  and  _244
REMARK   99  A    between atoms: _244  and  _245
REMARK  100  A    between atoms: _251  and  _253
REMARK  101  A    between atoms: _253  and  _254
REMARK  102  A    between atoms: _253  and  _256
REMARK  103  A    between atoms: _256  and  _257
REMARK  104  A    between atoms: _262  and  _264
REMARK  105  A    between atoms: _264  and  _265
REMARK  106  A    between atoms: _267  and  _269
REMARK  107  A    between atoms: _269  and  _270
REMARK  108  A    between atoms: _269  and  _272
REMARK  109  A    between atoms: _272  and  _273
REMARK  110  A    between atoms: _278  and  _279
REMARK  111  A    between atoms: _281  and  _283
REMARK  112  A    between atoms: _283  and  _284
REMARK  113  A    between atoms: _283  and  _286
REMARK  114  A    between atoms: _286  and  _287
REMARK  115  A    between atoms: _287  and  _288
REMARK  116  A    between atoms: _288  and  _289
REMARK  117  A    between atoms: _289  and  _290
REMARK  118  A    between atoms: _294  and  _296
REMARK  119  A    between atoms: _296  and  _297
REMARK  120  A    between atoms: _300  and  _302
REMARK  121  A    between atoms: _302  and  _303
REMARK  122  A    between atoms: _302  and  _305
REMARK  123  A    between atoms: _305  and  _306
REMARK  124  A    between atoms: _306  and  _307
REMARK  125  A    between atoms: _307  and  _308
REMARK  126  A    between atoms: _308  and  _309
REMARK  127  A    between atoms: _313  and  _315
REMARK  128  A    between atoms: _315  and  _316
REMARK  129  A    between atoms: _318  and  _320
REMARK  130  A    between atoms: _320  and  _321
REMARK  131  A    between atoms: _320  and  _323
REMARK  132  A    between atoms: _323  and  _324
REMARK  133  A    between atoms: _324  and  _325
REMARK  134  A    between atoms: _325  and  _326
REMARK  135  A    between atoms: _335  and  _337
REMARK  136  A    between atoms: _337  and  _338
REMARK  137  A    between atoms: _337  and  _340
REMARK  138  A    between atoms: _340  and  _341
REMARK  139  A    between atoms: _341  and  _342
REMARK  140  A    between atoms: _342  and  _343
REMARK  141  A    between atoms: _343  and  _344
REMARK  142  A    between atoms: _348  and  _350
REMARK  143  A    between atoms: _350  and  _351
REMARK  144  A    between atoms: _350  and  _353
REMARK  145  A    between atoms: _353  and  _354
REMARK  146  A    between atoms: _354  and  _355
REMARK                            x       y       z     vdW  Elec       q    Type
REMARK                         _______ _______ _______ _____ _____    ______ ____
ROOT
ATOM      1  CB  PHE A   1     -30.260  17.532  44.252  0.00  0.00    +0.051 C 
ENDROOT
BRANCH   1   2
ATOM      2  CG  PHE A   1     -29.461  16.909  45.349  0.00  0.00    -0.020 A 
ATOM      3  CD2 PHE A   1     -29.868  15.725  45.943  0.00  0.00    -0.004 A 
ATOM      4  CE2 PHE A   1     -29.111  15.184  46.970  0.00  0.00    -0.000 A 
ATOM      5  CZ  PHE A   1     -27.957  15.817  47.413  0.00  0.00    -0.000 A 
ATOM      6  CE1 PHE A   1     -27.563  16.998  46.829  0.00  0.00    -0.000 A 
ATOM      7  CD1 PHE A   1     -28.319  17.542  45.812  0.00  0.00    -0.004 A 
ENDBRANCH   1   2
BRANCH   1   8
ATOM      8  CA  PHE A   1     -31.273  18.560  44.753  0.00  0.00    +0.137 C 
BRANCH   8   9
ATOM      9  N   PHE A   1     -30.850  18.985  46.097  0.00  0.00    -0.239 NA
ATOM     10  H   PHE A   1     -30.154  18.372  46.567  0.00  0.00    +0.142 HD
ENDBRANCH   8   9
BRANCH   8  11
ATOM     11  C   PHE A   1     -32.552  17.735  44.859  0.00  0.00    +0.224 C 
ATOM     12  O   PHE A   1     -32.841  16.876  44.015  0.00  0.00    -0.287 OA
ENDBRANCH   8  11
ENDBRANCH   1   8
TORSDOF 4
REMARK  Name = ../refined-set-2016/3k5i/3k5i_pocket.pdb
REMARK  146 active torsions:
REMARK  status: ('A' for Active; 'I' for Inactive)
REMARK    1  A    between atoms: _1  and  _3
REMARK    2  A    between atoms: _3  and  _4
REMARK    3  A    between atoms: _3  and  _6
REMARK    4  A    between atoms: _6  and  _7
REMARK    5  A    between atoms: _10  and  _12
REMARK    6  A    between atoms: _12  and  _13
REMARK    7  A    between atoms: _15  and  _17
REMARK    8  A    between atoms: _17  and  _18
REMARK    9  A    between atoms: _20  and  _22
REMARK   10  A    between atoms: _22  and  _23
REMARK   11  A    between atoms: _25  and  _27
REMARK   12  A    between atoms: _27  and  _28
REMARK   13  A    between atoms: _27  and  _30
REMARK   14  A    between atoms: _30  and  _31
REMARK   15  A    between atoms: _31  and  _32
REMARK   16  A    between atoms: _37  and  _39
REMARK   17  A    between atoms: _39  and  _40
REMARK   18  A    between atoms: _39  and  _42
REMARK   19  A    between atoms: _42  and  _43
REMARK   20  A    between atoms: _46  and  _48
REMARK   21  A    between atoms: _48  and  _49
REMARK   22  A    between atoms: _51  and  _53
REMARK   23  A    between atoms: _53  and  _54
REMARK   24  A    between atoms: _53  and  _56
REMARK   25  A    between atoms: _56  and  _57
REMARK   26  A    between atoms: _57  and  _58
REMARK   27  A    between atoms: _58  and  _59
REMARK   28  A    between atoms: _68  and  _70
REMARK   29  A    between atoms: _70  and  _71
REMARK   30  A    between atoms: _70  and  _73
REMARK   31  A    between atoms: _73  and  _74
REMARK   32  A    between atoms: _74  and  _75
REMARK   33  A    between atoms: _77  and  _79
REMARK   34  A    between atoms: _79  and  _80
REMARK   35  A    between atoms: _79  and  _82
REMARK   36  A    between atoms: _82  and  _83
REMARK   37  A    between atoms: _86  and  _88
REMARK   38  A    between atoms: _88  and  _89
REMARK   39  A    between atoms: _88  and  _91
REMARK   40  A    between atoms: _91  and  _92
REMARK   41  A    between atoms: _95  and  _97
REMARK   42  A    between atoms: _97  and  _98
REMARK   43  A    between atoms: _97  and  _100
REMARK   44  A    between atoms: _100  and  _101
REMARK   45  A    between atoms: _104  and  _105
REMARK   46  A    between atoms: _110  and  _112
REMARK   47  A    between atoms: _112  and  _113
REMARK   48  A    between atoms: _116  and  _118
REMARK   49  A    between atoms: _118  and  _119
REMARK   50  A    between atoms: _118  and  _121
REMARK   51  A    between atoms: _121  and  _122
REMARK   52  A    between atoms: _128  and  _130
REMARK   53  A    between atoms: _130  and  _131
REMARK   54  A    between atoms: _134  and  _136
REMARK   55  A    between atoms: _136  and  _137
REMARK   56  A    between atoms: _136  and  _139
REMARK   57  A    between atoms: _139  and  _140
REMARK   58  A    between atoms: _140  and  _141
REMARK   59  A    between atoms: _144  and  _146
REMARK   60  A    between atoms: _146  and  _147
REMARK   61  A    between atoms: _146  and  _149
REMARK   62  A    between atoms: _149  and  _150
REMARK   63  A    between atoms: _153  and  _155
REMARK   64  A    between atoms: _155  and  _156
REMARK   65  A    between atoms: _155  and  _158
REMARK   66  A    between atoms: _158  and  _159
REMARK   67  A    between atoms: _159  and  _160
REMARK   68  A    between atoms: _163  and  _165
REMARK   69  A    between atoms: _165  and  _166
REMARK   70  A    between atoms: _165  and  _168
REMARK   71  A    between atoms: _168  and  _169
REMARK   72  A    between atoms: _174  and  _176
REMARK   73  A    between atoms: _176  and  _177
REMARK   74  A    between atoms: _180  and  _182
REMARK   75  A    between atoms: _182  and  _183
REMARK   76  A    between atoms: _182  and  _185
REMARK   77  A    between atoms: _185  and  _186
REMARK   78  A    between atoms: _186  and  _187
REMARK   79  A    between atoms: _187  and  _188
REMARK   80  A    between atoms: _197  and  _199
REMARK   81  A    between atoms: _199  and  _200
REMARK   82  A    between atoms: _199  and  _202
REMARK   83  A    between atoms: _202  and  _203
REMARK   84  A    between atoms: _206  and  _208
REMARK   85  A    between atoms: _208  and  _209
REMARK   86  A    between atoms: _208  and  _211
REMARK   87  A    between atoms: _211  and  _212
REMARK   88  A    between atoms: _217  and  _219
REMARK   89  A    between atoms: _219  and  _220
REMARK   90  A    between atoms: _219  and  _222
REMARK   91  A    between atoms: _222  and  _223
REMARK   92  A    between atoms: _228  and  _230
REMARK   93  A    between atoms: _230  and  _231
REMARK   94  A    between atoms: _230  and  _233
REMARK   95  A    between atoms: _233  and  _234
REMARK   96  A    between atoms: _239  and  _241
REMARK   97  A    between atoms: _241  and  _242
REMARK   98  A    between atoms: _241  and  _244
REMARK   99  A    between atoms: _244  and  _245
REMARK  100  A    between atoms: _251  and  _253
REMARK  101  A    between atoms: _253  and  _254
REMARK  102  A    between atoms: _253  and  _256
REMARK  103  A    between atoms: _256  and  _257
REMARK  104  A    between atoms: _262  and  _264
REMARK  105  A    between atoms: _264  and  _265
REMARK  106  A    between atoms: _267  and  _269
REMARK  107  A    between atoms: _269  and  _270
REMARK  108  A    between atoms: _269  and  _272
REMARK  109  A    between atoms: _272  and  _273
REMARK  110  A    between atoms: _278  and  _279
REMARK  111  A    between atoms: _281  and  _283
REMARK  112  A    between atoms: _283  and  _284
REMARK  113  A    between atoms: _283  and  _286
REMARK  114  A    between atoms: _286  and  _287
REMARK  115  A    between atoms: _287  and  _288
REMARK  116  A    between atoms: _288  and  _289
REMARK  117  A    between atoms: _289  and  _290
REMARK  118  A    between atoms: _294  and  _296
REMARK  119  A    between atoms: _296  and  _297
REMARK  120  A    between atoms: _300  and  _302
REMARK  121  A    between atoms: _302  and  _303
REMARK  122  A    between atoms: _302  and  _305
REMARK  123  A    between atoms: _305  and  _306
REMARK  124  A    between atoms: _306  and  _307
REMARK  125  A    between atoms: _307  and  _308
REMARK  126  A    between atoms: _308  and  _309
REMARK  127  A    between atoms: _313  and  _315
REMARK  128  A    between atoms: _315  and  _316
REMARK  129  A    between atoms: _318  and  _320
REMARK  130  A    between atoms: _320  and  _321
REMARK  131  A    between atoms: _320  and  _323
REMARK  132  A    between atoms: _323  and  _324
REMARK  133  A    between atoms: _324  and  _325
REMARK  134  A    between atoms: _325  and  _326
REMARK  135  A    between atoms: _335  and  _337
REMARK  136  A    between atoms: _337  and  _338
REMARK  137  A    between atoms: _337  and  _340
REMARK  138  A    between atoms: _340  and  _341
REMARK  139  A    between atoms: _341  and  _342
REMARK  140  A    between atoms: _342  and  _343
REMARK  141  A    between atoms: _343  and  _344
REMARK  142  A    between atoms: _348  and  _350
REMARK  143  A    between atoms: _350  and  _351
REMARK  144  A    between atoms: _350  and  _353
REMARK  145  A    between atoms: _353  and  _354
REMARK  146  A    between atoms: _354  and  _355
REMARK                            x       y       z     vdW  Elec       q    Type
REMARK                         _______ _______ _______ _____ _____    ______ ____
ROOT
ATOM      1  CA  ILE A   3     -26.427  11.233  42.286  0.00  0.00    +0.149 C 
ENDROOT
BRANCH   1   4
ATOM      2  C   GLU A   2     -24.495  12.261  41.238  0.00  0.00    +0.241 C 
ATOM      3  O   GLU A   2     -23.693  11.546  41.897  0.00  0.00    -0.273 OA
ATOM      4  N   ILE A   3     -25.812  12.173  41.361  0.00  0.00    -0.297 N 
ATOM      5  H   ILE A   3     -26.419  12.789  40.784  0.00  0.00    +0.150 HD
BRANCH   2   6
ATOM      6  CA  GLU A   2     -24.044  13.302  40.215  0.00  0.00    +0.149 C 
BRANCH   6   8
ATOM      7  C   ALA A   1     -25.457  14.123  38.450  0.00  0.00    +0.238 C 
ATOM      8  N   GLU A   2     -25.120  14.178  39.734  0.00  0.00    -0.297 N 
ATOM      9  H   GLU A   2     -25.607  14.827  40.384  0.00  0.00    +0.150 HD
ATOM     10  O   ALA A   1     -24.864  13.360  37.673  0.00  0.00    -0.274 OA
BRANCH   7  11
ATOM     11  CA  ALA A   1     -26.602  15.041  37.981  0.00  0.00    +0.145 C 
ATOM     12  CB  ALA A   1     -27.977  14.451  38.323  0.00  0.00    +0.028 C 
BRANCH  11  13
ATOM     13  N   ALA A   1     -26.619  15.463  36.582  0.00  0.00    -0.238 NA
ATOM     14  H   ALA A   1     -26.546  14.744  35.834  0.00  0.00    +0.142 HD
ENDBRANCH  11  13
ENDBRANCH   7  11
ENDBRANCH   6   8
BRANCH   6  15
ATOM     15  CB  GLU A   2     -22.804  14.061  40.728  0.00  0.00    +0.041 C 
BRANCH  15  16
ATOM     16  CG  GLU A   2     -22.968  14.999  41.888  0.00  0.00    +0.116 C 
BRANCH  16  17
ATOM     17  CD  GLU A   2     -22.507  14.346  43.175  0.00  0.00    +0.365 C 
ATOM     18  OE2 GLU A   2     -23.293  14.247  44.148  0.00  0.00    -0.246 OA
ATOM     19  OE1 GLU A   2     -21.307  13.994  43.197  0.00  0.00    -0.246 OA
ENDBRANCH  16  17
ENDBRANCH  15  16
ENDBRANCH   6  15
ENDBRANCH   2   6
ENDBRANCH   1   4
BRANCH   1  20
ATOM     20  C   ILE A   3     -27.707  10.825  41.593  0.00  0.00    +0.241 C 
ATOM     21  N   GLU A   4     -28.130   9.587  41.800  0.00  0.00    -0.297 N 
ATOM     22  H   GLU A   4     -27.606   8.939  42.422  0.00  0.00    +0.150 HD
ATOM     23  O   ILE A   3     -28.302  11.616  40.861  0.00  0.00    -0.273 OA
BRANCH  21  24
ATOM     24  CA  GLU A   4     -29.349   9.162  41.131  0.00  0.00    +0.149 C 
BRANCH  24  25
ATOM     25  C   GLU A   4     -30.638   9.670  41.785  0.00  0.00    +0.241 C 
ATOM     26  N   HIS A   5     -30.650   9.681  43.120  0.00  0.00    -0.298 N 
ATOM     27  H   HIS A   5     -29.810   9.369  43.647  0.00  0.00    +0.150 HD
ATOM     28  O   GLU A   4     -31.592  10.044  41.083  0.00  0.00    -0.273 OA
BRANCH  26  29
ATOM     29  CA  HIS A   5     -31.833  10.128  43.842  0.00  0.00    +0.143 C 
BRANCH  29  30
ATOM     30  C   HIS A   5     -32.077  11.601  43.678  0.00  0.00    +0.227 C 
ATOM     31  O   HIS A   5     -32.055  12.331  44.686  0.00  0.00    -0.286 OA
ENDBRANCH  29  30
BRANCH  29  32
ATOM     32  CB  HIS A   5     -31.742   9.886  45.337  0.00  0.00    +0.075 C 
BRANCH  32  33
ATOM     33  CG  HIS A   5     -31.261   8.520  45.687  0.00  0.00    +0.082 A 
ATOM     34  CD2 HIS A   5     -31.782   7.573  46.500  0.00  0.00    +0.115 A 
ATOM     35  NE2 HIS A   5     -30.926   6.498  46.462  0.00  0.00    -0.221 NA
ATOM     36  CE1 HIS A   5     -29.923   6.773  45.644  0.00  0.00    +0.199 A 
ATOM     37  ND1 HIS A   5     -30.100   7.991  45.164  0.00  0.00    -0.227 NA
ENDBRANCH  32  33
ENDBRANCH  29  32
ENDBRANCH  26  29
ENDBRANCH  24  25
BRANCH  24  38
ATOM     38  CB  GLU A   4     -29.385   7.647  41.008  0.00  0.00    +0.041 C 
BRANCH  38  39
ATOM     39  CG  GLU A   4     -30.758   7.137  41.381  0.00  0.00    +0.116 C 
BRANCH  39  40
ATOM     40  CD  GLU A   4     -30.705   5.901  42.261  0.00  0.00    +0.365 C 
ATOM     41  OE2 GLU A   4     -31.638   5.691  43.075  0.00  0.00    -0.246 OA
ATOM     42  OE1 GLU A   4     -29.697   5.152  42.105  0.00  0.00    -0.246 OA
ENDBRANCH  39  40
ENDBRANCH  38  39
ENDBRANCH  24  38
ENDBRANCH  21  24
ENDBRANCH   1  20
BRANCH   1  43
ATOM     43  CB  ILE A   3     -26.891  11.938  43.545  0.00  0.00    +0.027 C 
ATOM     44  CG2 ILE A   3     -26.281  11.338  44.808  0.00  0.00    +0.002 C 
BRANCH  43  45
ATOM     45  CG1 ILE A   3     -26.880  13.459  43.403  0.00  0.00    +0.002 C 
ATOM     46  CD1 ILE A   3     -28.267  14.004  43.273  0.00  0.00    +0.000 C 
ENDBRANCH  43  45
ENDBRANCH   1  43
TORSDOF 20
REMARK  Name = ../refined-set-2016/3k5i/3k5i_pocket.pdb
REMARK  146 active torsions:
REMARK  status: ('A' for Active; 'I' for Inactive)
REMARK    1  A    between atoms: _1  and  _3
REMARK    2  A    between atoms: _3  and  _4
REMARK    3  A    between atoms: _3  and  _6
REMARK    4  A    between atoms: _6  and  _7
REMARK    5  A    between atoms: _10  and  _12
REMARK    6  A    between atoms: _12  and  _13
REMARK    7  A    between atoms: _15  and  _17
REMARK    8  A    between atoms: _17  and  _18
REMARK    9  A    between atoms: _20  and  _22
REMARK   10  A    between atoms: _22  and  _23
REMARK   11  A    between atoms: _25  and  _27
REMARK   12  A    between atoms: _27  and  _28
REMARK   13  A    between atoms: _27  and  _30
REMARK   14  A    between atoms: _30  and  _31
REMARK   15  A    between atoms: _31  and  _32
REMARK   16  A    between atoms: _37  and  _39
REMARK   17  A    between atoms: _39  and  _40
REMARK   18  A    between atoms: _39  and  _42
REMARK   19  A    between atoms: _42  and  _43
REMARK   20  A    between atoms: _46  and  _48
REMARK   21  A    between atoms: _48  and  _49
REMARK   22  A    between atoms: _51  and  _53
REMARK   23  A    between atoms: _53  and  _54
REMARK   24  A    between atoms: _53  and  _56
REMARK   25  A    between atoms: _56  and  _57
REMARK   26  A    between atoms: _57  and  _58
REMARK   27  A    between atoms: _58  and  _59
REMARK   28  A    between atoms: _68  and  _70
REMARK   29  A    between atoms: _70  and  _71
REMARK   30  A    between atoms: _70  and  _73
REMARK   31  A    between atoms: _73  and  _74
REMARK   32  A    between atoms: _74  and  _75
REMARK   33  A    between atoms: _77  and  _79
REMARK   34  A    between atoms: _79  and  _80
REMARK   35  A    between atoms: _79  and  _82
REMARK   36  A    between atoms: _82  and  _83
REMARK   37  A    between atoms: _86  and  _88
REMARK   38  A    between atoms: _88  and  _89
REMARK   39  A    between atoms: _88  and  _91
REMARK   40  A    between atoms: _91  and  _92
REMARK   41  A    between atoms: _95  and  _97
REMARK   42  A    between atoms: _97  and  _98
REMARK   43  A    between atoms: _97  and  _100
REMARK   44  A    between atoms: _100  and  _101
REMARK   45  A    between atoms: _104  and  _105
REMARK   46  A    between atoms: _110  and  _112
REMARK   47  A    between atoms: _112  and  _113
REMARK   48  A    between atoms: _116  and  _118
REMARK   49  A    between atoms: _118  and  _119
REMARK   50  A    between atoms: _118  and  _121
REMARK   51  A    between atoms: _121  and  _122
REMARK   52  A    between atoms: _128  and  _130
REMARK   53  A    between atoms: _130  and  _131
REMARK   54  A    between atoms: _134  and  _136
REMARK   55  A    between atoms: _136  and  _137
REMARK   56  A    between atoms: _136  and  _139
REMARK   57  A    between atoms: _139  and  _140
REMARK   58  A    between atoms: _140  and  _141
REMARK   59  A    between atoms: _144  and  _146
REMARK   60  A    between atoms: _146  and  _147
REMARK   61  A    between atoms: _146  and  _149
REMARK   62  A    between atoms: _149  and  _150
REMARK   63  A    between atoms: _153  and  _155
REMARK   64  A    between atoms: _155  and  _156
REMARK   65  A    between atoms: _155  and  _158
REMARK   66  A    between atoms: _158  and  _159
REMARK   67  A    between atoms: _159  and  _160
REMARK   68  A    between atoms: _163  and  _165
REMARK   69  A    between atoms: _165  and  _166
REMARK   70  A    between atoms: _165  and  _168
REMARK   71  A    between atoms: _168  and  _169
REMARK   72  A    between atoms: _174  and  _176
REMARK   73  A    between atoms: _176  and  _177
REMARK   74  A    between atoms: _180  and  _182
REMARK   75  A    between atoms: _182  and  _183
REMARK   76  A    between atoms: _182  and  _185
REMARK   77  A    between atoms: _185  and  _186
REMARK   78  A    between atoms: _186  and  _187
REMARK   79  A    between atoms: _187  and  _188
REMARK   80  A    between atoms: _197  and  _199
REMARK   81  A    between atoms: _199  and  _200
REMARK   82  A    between atoms: _199  and  _202
REMARK   83  A    between atoms: _202  and  _203
REMARK   84  A    between atoms: _206  and  _208
REMARK   85  A    between atoms: _208  and  _209
REMARK   86  A    between atoms: _208  and  _211
REMARK   87  A    between atoms: _211  and  _212
REMARK   88  A    between atoms: _217  and  _219
REMARK   89  A    between atoms: _219  and  _220
REMARK   90  A    between atoms: _219  and  _222
REMARK   91  A    between atoms: _222  and  _223
REMARK   92  A    between atoms: _228  and  _230
REMARK   93  A    between atoms: _230  and  _231
REMARK   94  A    between atoms: _230  and  _233
REMARK   95  A    between atoms: _233  and  _234
REMARK   96  A    between atoms: _239  and  _241
REMARK   97  A    between atoms: _241  and  _242
REMARK   98  A    between atoms: _241  and  _244
REMARK   99  A    between atoms: _244  and  _245
REMARK  100  A    between atoms: _251  and  _253
REMARK  101  A    between atoms: _253  and  _254
REMARK  102  A    between atoms: _253  and  _256
REMARK  103  A    between atoms: _256  and  _257
REMARK  104  A    between atoms: _262  and  _264
REMARK  105  A    between atoms: _264  and  _265
REMARK  106  A    between atoms: _267  and  _269
REMARK  107  A    between atoms: _269  and  _270
REMARK  108  A    between atoms: _269  and  _272
REMARK  109  A    between atoms: _272  and  _273
REMARK  110  A    between atoms: _278  and  _279
REMARK  111  A    between atoms: _281  and  _283
REMARK  112  A    between atoms: _283  and  _284
REMARK  113  A    between atoms: _283  and  _286
REMARK  114  A    between atoms: _286  and  _287
REMARK  115  A    between atoms: _287  and  _288
REMARK  116  A    between atoms: _288  and  _289
REMARK  117  A    between atoms: _289  and  _290
REMARK  118  A    between atoms: _294  and  _296
REMARK  119  A    between atoms: _296  and  _297
REMARK  120  A    between atoms: _300  and  _302
REMARK  121  A    between atoms: _302  and  _303
REMARK  122  A    between atoms: _302  and  _305
REMARK  123  A    between atoms: _305  and  _306
REMARK  124  A    between atoms: _306  and  _307
REMARK  125  A    between atoms: _307  and  _308
REMARK  126  A    between atoms: _308  and  _309
REMARK  127  A    between atoms: _313  and  _315
REMARK  128  A    between atoms: _315  and  _316
REMARK  129  A    between atoms: _318  and  _320
REMARK  130  A    between atoms: _320  and  _321
REMARK  131  A    between atoms: _320  and  _323
REMARK  132  A    between atoms: _323  and  _324
REMARK  133  A    between atoms: _324  and  _325
REMARK  134  A    between atoms: _325  and  _326
REMARK  135  A    between atoms: _335  and  _337
REMARK  136  A    between atoms: _337  and  _338
REMARK  137  A    between atoms: _337  and  _340
REMARK  138  A    between atoms: _340  and  _341
REMARK  139  A    between atoms: _341  and  _342
REMARK  140  A    between atoms: _342  and  _343
REMARK  141  A    between atoms: _343  and  _344
REMARK  142  A    between atoms: _348  and  _350
REMARK  143  A    between atoms: _350  and  _351
REMARK  144  A    between atoms: _350  and  _353
REMARK  145  A    between atoms: _353  and  _354
REMARK  146  A    between atoms: _354  and  _355
REMARK                            x       y       z     vdW  Elec       q    Type
REMARK                         _______ _______ _______ _____ _____    ______ ____
ROOT
ATOM      1  CA  ALA A   1     -26.703   3.829  36.959  0.00  0.00    +0.133 C 
ATOM      2  CB  ALA A   1     -25.529   3.819  37.968  0.00  0.00    +0.027 C 
ENDROOT
BRANCH   1   3
ATOM      3  N   ALA A   1     -26.622   2.629  36.153  0.00  0.00    -0.239 NA
ATOM      4  H   ALA A   1     -25.757   2.440  35.608  0.00  0.00    +0.142 HD
ENDBRANCH   1   3
BRANCH   1   5
ATOM      5  C   ALA A   1     -26.552   4.922  35.879  0.00  0.00    +0.224 C 
ATOM      6  O   ALA A   1     -25.646   4.755  35.081  0.00  0.00    -0.287 OA
ENDBRANCH   1   5
TORSDOF 2
REMARK  Name = ../refined-set-2016/3k5i/3k5i_pocket.pdb
REMARK  146 active torsions:
REMARK  status: ('A' for Active; 'I' for Inactive)
REMARK    1  A    between atoms: _1  and  _3
REMARK    2  A    between atoms: _3  and  _4
REMARK    3  A    between atoms: _3  and  _6
REMARK    4  A    between atoms: _6  and  _7
REMARK    5  A    between atoms: _10  and  _12
REMARK    6  A    between atoms: _12  and  _13
REMARK    7  A    between atoms: _15  and  _17
REMARK    8  A    between atoms: _17  and  _18
REMARK    9  A    between atoms: _20  and  _22
REMARK   10  A    between atoms: _22  and  _23
REMARK   11  A    between atoms: _25  and  _27
REMARK   12  A    between atoms: _27  and  _28
REMARK   13  A    between atoms: _27  and  _30
REMARK   14  A    between atoms: _30  and  _31
REMARK   15  A    between atoms: _31  and  _32
REMARK   16  A    between atoms: _37  and  _39
REMARK   17  A    between atoms: _39  and  _40
REMARK   18  A    between atoms: _39  and  _42
REMARK   19  A    between atoms: _42  and  _43
REMARK   20  A    between atoms: _46  and  _48
REMARK   21  A    between atoms: _48  and  _49
REMARK   22  A    between atoms: _51  and  _53
REMARK   23  A    between atoms: _53  and  _54
REMARK   24  A    between atoms: _53  and  _56
REMARK   25  A    between atoms: _56  and  _57
REMARK   26  A    between atoms: _57  and  _58
REMARK   27  A    between atoms: _58  and  _59
REMARK   28  A    between atoms: _68  and  _70
REMARK   29  A    between atoms: _70  and  _71
REMARK   30  A    between atoms: _70  and  _73
REMARK   31  A    between atoms: _73  and  _74
REMARK   32  A    between atoms: _74  and  _75
REMARK   33  A    between atoms: _77  and  _79
REMARK   34  A    between atoms: _79  and  _80
REMARK   35  A    between atoms: _79  and  _82
REMARK   36  A    between atoms: _82  and  _83
REMARK   37  A    between atoms: _86  and  _88
REMARK   38  A    between atoms: _88  and  _89
REMARK   39  A    between atoms: _88  and  _91
REMARK   40  A    between atoms: _91  and  _92
REMARK   41  A    between atoms: _95  and  _97
REMARK   42  A    between atoms: _97  and  _98
REMARK   43  A    between atoms: _97  and  _100
REMARK   44  A    between atoms: _100  and  _101
REMARK   45  A    between atoms: _104  and  _105
REMARK   46  A    between atoms: _110  and  _112
REMARK   47  A    between atoms: _112  and  _113
REMARK   48  A    between atoms: _116  and  _118
REMARK   49  A    between atoms: _118  and  _119
REMARK   50  A    between atoms: _118  and  _121
REMARK   51  A    between atoms: _121  and  _122
REMARK   52  A    between atoms: _128  and  _130
REMARK   53  A    between atoms: _130  and  _131
REMARK   54  A    between atoms: _134  and  _136
REMARK   55  A    between atoms: _136  and  _137
REMARK   56  A    between atoms: _136  and  _139
REMARK   57  A    between atoms: _139  and  _140
REMARK   58  A    between atoms: _140  and  _141
REMARK   59  A    between atoms: _144  and  _146
REMARK   60  A    between atoms: _146  and  _147
REMARK   61  A    between atoms: _146  and  _149
REMARK   62  A    between atoms: _149  and  _150
REMARK   63  A    between atoms: _153  and  _155
REMARK   64  A    between atoms: _155  and  _156
REMARK   65  A    between atoms: _155  and  _158
REMARK   66  A    between atoms: _158  and  _159
REMARK   67  A    between atoms: _159  and  _160
REMARK   68  A    between atoms: _163  and  _165
REMARK   69  A    between atoms: _165  and  _166
REMARK   70  A    between atoms: _165  and  _168
REMARK   71  A    between atoms: _168  and  _169
REMARK   72  A    between atoms: _174  and  _176
REMARK   73  A    between atoms: _176  and  _177
REMARK   74  A    between atoms: _180  and  _182
REMARK   75  A    between atoms: _182  and  _183
REMARK   76  A    between atoms: _182  and  _185
REMARK   77  A    between atoms: _185  and  _186
REMARK   78  A    between atoms: _186  and  _187
REMARK   79  A    between atoms: _187  and  _188
REMARK   80  A    between atoms: _197  and  _199
REMARK   81  A    between atoms: _199  and  _200
REMARK   82  A    between atoms: _199  and  _202
REMARK   83  A    between atoms: _202  and  _203
REMARK   84  A    between atoms: _206  and  _208
REMARK   85  A    between atoms: _208  and  _209
REMARK   86  A    between atoms: _208  and  _211
REMARK   87  A    between atoms: _211  and  _212
REMARK   88  A    between atoms: _217  and  _219
REMARK   89  A    between atoms: _219  and  _220
REMARK   90  A    between atoms: _219  and  _222
REMARK   91  A    between atoms: _222  and  _223
REMARK   92  A    between atoms: _228  and  _230
REMARK   93  A    between atoms: _230  and  _231
REMARK   94  A    between atoms: _230  and  _233
REMARK   95  A    between atoms: _233  and  _234
REMARK   96  A    between atoms: _239  and  _241
REMARK   97  A    between atoms: _241  and  _242
REMARK   98  A    between atoms: _241  and  _244
REMARK   99  A    between atoms: _244  and  _245
REMARK  100  A    between atoms: _251  and  _253
REMARK  101  A    between atoms: _253  and  _254
REMARK  102  A    between atoms: _253  and  _256
REMARK  103  A    between atoms: _256  and  _257
REMARK  104  A    between atoms: _262  and  _264
REMARK  105  A    between atoms: _264  and  _265
REMARK  106  A    between atoms: _267  and  _269
REMARK  107  A    between atoms: _269  and  _270
REMARK  108  A    between atoms: _269  and  _272
REMARK  109  A    between atoms: _272  and  _273
REMARK  110  A    between atoms: _278  and  _279
REMARK  111  A    between atoms: _281  and  _283
REMARK  112  A    between atoms: _283  and  _284
REMARK  113  A    between atoms: _283  and  _286
REMARK  114  A    between atoms: _286  and  _287
REMARK  115  A    between atoms: _287  and  _288
REMARK  116  A    between atoms: _288  and  _289
REMARK  117  A    between atoms: _289  and  _290
REMARK  118  A    between atoms: _294  and  _296
REMARK  119  A    between atoms: _296  and  _297
REMARK  120  A    between atoms: _300  and  _302
REMARK  121  A    between atoms: _302  and  _303
REMARK  122  A    between atoms: _302  and  _305
REMARK  123  A    between atoms: _305  and  _306
REMARK  124  A    between atoms: _306  and  _307
REMARK  125  A    between atoms: _307  and  _308
REMARK  126  A    between atoms: _308  and  _309
REMARK  127  A    between atoms: _313  and  _315
REMARK  128  A    between atoms: _315  and  _316
REMARK  129  A    between atoms: _318  and  _320
REMARK  130  A    between atoms: _320  and  _321
REMARK  131  A    between atoms: _320  and  _323
REMARK  132  A    between atoms: _323  and  _324
REMARK  133  A    between atoms: _324  and  _325
REMARK  134  A    between atoms: _325  and  _326
REMARK  135  A    between atoms: _335  and  _337
REMARK  136  A    between atoms: _337  and  _338
REMARK  137  A    between atoms: _337  and  _340
REMARK  138  A    between atoms: _340  and  _341
REMARK  139  A    between atoms: _341  and  _342
REMARK  140  A    between atoms: _342  and  _343
REMARK  141  A    between atoms: _343  and  _344
REMARK  142  A    between atoms: _348  and  _350
REMARK  143  A    between atoms: _350  and  _351
REMARK  144  A    between atoms: _350  and  _353
REMARK  145  A    between atoms: _353  and  _354
REMARK  146  A    between atoms: _354  and  _355
REMARK                            x       y       z     vdW  Elec       q    Type
REMARK                         _______ _______ _______ _____ _____    ______ ____
ROOT
ATOM      1  CA  ILE A   2     -20.387   8.649  36.312  0.00  0.00    +0.148 C 
ENDROOT
BRANCH   1   3
ATOM      2  C   ARG A   1     -22.784   8.116  35.877  0.00  0.00    +0.238 C 
ATOM      3  N   ILE A   2     -21.786   8.970  36.080  0.00  0.00    -0.297 N 
ATOM      4  H   ILE A   2     -22.033   9.980  36.072  0.00  0.00    +0.150 HD
ATOM      5  O   ARG A   1     -22.625   6.901  35.858  0.00  0.00    -0.274 OA
BRANCH   2   6
ATOM      6  CA  ARG A   1     -24.170   8.753  35.742  0.00  0.00    +0.145 C 
BRANCH   6   7
ATOM      7  N   ARG A   1     -25.200   7.773  35.446  0.00  0.00    -0.238 NA
ATOM      8  H   ARG A   1     -24.967   6.760  35.465  0.00  0.00    +0.142 HD
ENDBRANCH   6   7
BRANCH   6   9
ATOM      9  CB  ARG A   1     -24.473   9.230  37.164  0.00  0.00    +0.030 C 
BRANCH   9  10
ATOM     10  CG  ARG A   1     -24.872   8.122  38.105  0.00  0.00    +0.045 C 
BRANCH  10  11
ATOM     11  CD  ARG A   1     -24.731   8.493  39.573  0.00  0.00    +0.174 C 
BRANCH  11  12
ATOM     12  NE  ARG A   1     -25.072   7.347  40.422  0.00  0.00    -0.265 N 
ATOM     13  CZ  ARG A   1     -24.221   6.452  40.917  0.00  0.00    +0.342 C 
ATOM     14  NH2 ARG A   1     -24.727   5.488  41.619  0.00  0.00    -0.292 N 
ATOM     15 HH21 ARG A   1     -24.106   4.762  42.029  0.00  0.00    +0.255 HD
ATOM     16 HH22 ARG A   1     -25.754   5.440  41.773  0.00  0.00    +0.255 HD
ATOM     17  NH1 ARG A   1     -22.901   6.455  40.761  0.00  0.00    -0.292 N 
ATOM     18 HH11 ARG A   1     -22.325   5.704  41.192  0.00  0.00    +0.255 HD
ATOM     19 HH12 ARG A   1     -22.444   7.208  40.208  0.00  0.00    +0.255 HD
ATOM     20  HE  ARG A   1     -26.077   7.222  40.660  0.00  0.00    +0.259 HD
ENDBRANCH  11  12
ENDBRANCH  10  11
ENDBRANCH   9  10
ENDBRANCH   6   9
ENDBRANCH   2   6
ENDBRANCH   1   3
BRANCH   1  21
ATOM     21  C   ILE A   2     -20.536   7.789  37.563  0.00  0.00    +0.241 C 
ATOM     22  O   ILE A   2     -21.351   8.055  38.471  0.00  0.00    -0.273 OA
ATOM     23  N   HIS A   3     -19.795   6.698  37.570  0.00  0.00    -0.297 N 
ATOM     24  H   HIS A   3     -19.070   6.556  36.838  0.00  0.00    +0.150 HD
BRANCH  23  25
ATOM     25  CA  HIS A   3     -19.994   5.692  38.606  0.00  0.00    +0.155 C 
BRANCH  25  26
ATOM     26  C   HIS A   3     -18.715   5.123  39.182  0.00  0.00    +0.241 C 
ATOM     27  N   ASN A   4     -18.798   4.722  40.459  0.00  0.00    -0.298 N 
ATOM     28  H   ASN A   4     -19.714   4.797  40.946  0.00  0.00    +0.150 HD
ATOM     29  O   HIS A   3     -17.696   5.083  38.450  0.00  0.00    -0.273 OA
BRANCH  27  30
ATOM     30  CA  ASN A   4     -17.655   4.184  41.194  0.00  0.00    +0.146 C 
BRANCH  30  31
ATOM     31  C   ASN A   4     -16.679   3.243  40.478  0.00  0.00    +0.227 C 
ATOM     32  O   ASN A   4     -15.440   3.324  40.571  0.00  0.00    -0.286 OA
ENDBRANCH  30  31
BRANCH  30  33
ATOM     33  CB  ASN A   4     -18.079   3.600  42.540  0.00  0.00    +0.112 C 
BRANCH  33  34
ATOM     34  CG  ASN A   4     -16.930   3.491  43.532  0.00  0.00    +0.222 C 
ATOM     35  OD1 ASN A   4     -17.190   3.365  44.722  0.00  0.00    -0.275 OA
ATOM     36  ND2 ASN A   4     -15.674   3.411  43.054  0.00  0.00    -0.329 N 
ATOM     37 HD21 ASN A   4     -14.881   3.236  43.703  0.00  0.00    +0.145 HD
ATOM     38 HD22 ASN A   4     -15.497   3.524  42.035  0.00  0.00    +0.145 HD
ENDBRANCH  33  34
ENDBRANCH  30  33
ENDBRANCH  27  30
ENDBRANCH  25  26
BRANCH  25  39
ATOM     39  CB  HIS A   3     -20.632   4.599  37.760  0.00  0.00    +0.076 C 
BRANCH  39  40
ATOM     40  CG  HIS A   3     -21.056   3.396  38.533  0.00  0.00    +0.082 A 
ATOM     41  CD2 HIS A   3     -22.205   3.137  39.192  0.00  0.00    +0.115 A 
ATOM     42  NE2 HIS A   3     -22.094   1.871  39.719  0.00  0.00    -0.221 NA
ATOM     43  CE1 HIS A   3     -20.930   1.353  39.359  0.00  0.00    +0.199 A 
ATOM     44  ND1 HIS A   3     -20.272   2.268  38.667  0.00  0.00    -0.227 NA
ENDBRANCH  39  40
ENDBRANCH  25  39
ENDBRANCH  23  25
ENDBRANCH   1  21
BRANCH   1  45
ATOM     45  CB  ILE A   2     -19.627   9.943  36.642  0.00  0.00    +0.027 C 
ATOM     46  CG2 ILE A   2     -19.511  10.714  35.344  0.00  0.00    +0.002 C 
BRANCH  45  47
ATOM     47  CG1 ILE A   2     -20.391  10.726  37.733  0.00  0.00    +0.002 C 
ATOM     48  CD1 ILE A   2     -19.970  12.163  37.758  0.00  0.00    +0.000 C 
ENDBRANCH  45  47
ENDBRANCH   1  45
TORSDOF 18
REMARK  Name = ../refined-set-2016/3k5i/3k5i_pocket.pdb
REMARK  146 active torsions:
REMARK  status: ('A' for Active; 'I' for Inactive)
REMARK    1  A    between atoms: _1  and  _3
REMARK    2  A    between atoms: _3  and  _4
REMARK    3  A    between atoms: _3  and  _6
REMARK    4  A    between atoms: _6  and  _7
REMARK    5  A    between atoms: _10  and  _12
REMARK    6  A    between atoms: _12  and  _13
REMARK    7  A    between atoms: _15  and  _17
REMARK    8  A    between atoms: _17  and  _18
REMARK    9  A    between atoms: _20  and  _22
REMARK   10  A    between atoms: _22  and  _23
REMARK   11  A    between atoms: _25  and  _27
REMARK   12  A    between atoms: _27  and  _28
REMARK   13  A    between atoms: _27  and  _30
REMARK   14  A    between atoms: _30  and  _31
REMARK   15  A    between atoms: _31  and  _32
REMARK   16  A    between atoms: _37  and  _39
REMARK   17  A    between atoms: _39  and  _40
REMARK   18  A    between atoms: _39  and  _42
REMARK   19  A    between atoms: _42  and  _43
REMARK   20  A    between atoms: _46  and  _48
REMARK   21  A    between atoms: _48  and  _49
REMARK   22  A    between atoms: _51  and  _53
REMARK   23  A    between atoms: _53  and  _54
REMARK   24  A    between atoms: _53  and  _56
REMARK   25  A    between atoms: _56  and  _57
REMARK   26  A    between atoms: _57  and  _58
REMARK   27  A    between atoms: _58  and  _59
REMARK   28  A    between atoms: _68  and  _70
REMARK   29  A    between atoms: _70  and  _71
REMARK   30  A    between atoms: _70  and  _73
REMARK   31  A    between atoms: _73  and  _74
REMARK   32  A    between atoms: _74  and  _75
REMARK   33  A    between atoms: _77  and  _79
REMARK   34  A    between atoms: _79  and  _80
REMARK   35  A    between atoms: _79  and  _82
REMARK   36  A    between atoms: _82  and  _83
REMARK   37  A    between atoms: _86  and  _88
REMARK   38  A    between atoms: _88  and  _89
REMARK   39  A    between atoms: _88  and  _91
REMARK   40  A    between atoms: _91  and  _92
REMARK   41  A    between atoms: _95  and  _97
REMARK   42  A    between atoms: _97  and  _98
REMARK   43  A    between atoms: _97  and  _100
REMARK   44  A    between atoms: _100  and  _101
REMARK   45  A    between atoms: _104  and  _105
REMARK   46  A    between atoms: _110  and  _112
REMARK   47  A    between atoms: _112  and  _113
REMARK   48  A    between atoms: _116  and  _118
REMARK   49  A    between atoms: _118  and  _119
REMARK   50  A    between atoms: _118  and  _121
REMARK   51  A    between atoms: _121  and  _122
REMARK   52  A    between atoms: _128  and  _130
REMARK   53  A    between atoms: _130  and  _131
REMARK   54  A    between atoms: _134  and  _136
REMARK   55  A    between atoms: _136  and  _137
REMARK   56  A    between atoms: _136  and  _139
REMARK   57  A    between atoms: _139  and  _140
REMARK   58  A    between atoms: _140  and  _141
REMARK   59  A    between atoms: _144  and  _146
REMARK   60  A    between atoms: _146  and  _147
REMARK   61  A    between atoms: _146  and  _149
REMARK   62  A    between atoms: _149  and  _150
REMARK   63  A    between atoms: _153  and  _155
REMARK   64  A    between atoms: _155  and  _156
REMARK   65  A    between atoms: _155  and  _158
REMARK   66  A    between atoms: _158  and  _159
REMARK   67  A    between atoms: _159  and  _160
REMARK   68  A    between atoms: _163  and  _165
REMARK   69  A    between atoms: _165  and  _166
REMARK   70  A    between atoms: _165  and  _168
REMARK   71  A    between atoms: _168  and  _169
REMARK   72  A    between atoms: _174  and  _176
REMARK   73  A    between atoms: _176  and  _177
REMARK   74  A    between atoms: _180  and  _182
REMARK   75  A    between atoms: _182  and  _183
REMARK   76  A    between atoms: _182  and  _185
REMARK   77  A    between atoms: _185  and  _186
REMARK   78  A    between atoms: _186  and  _187
REMARK   79  A    between atoms: _187  and  _188
REMARK   80  A    between atoms: _197  and  _199
REMARK   81  A    between atoms: _199  and  _200
REMARK   82  A    between atoms: _199  and  _202
REMARK   83  A    between atoms: _202  and  _203
REMARK   84  A    between atoms: _206  and  _208
REMARK   85  A    between atoms: _208  and  _209
REMARK   86  A    between atoms: _208  and  _211
REMARK   87  A    between atoms: _211  and  _212
REMARK   88  A    between atoms: _217  and  _219
REMARK   89  A    between atoms: _219  and  _220
REMARK   90  A    between atoms: _219  and  _222
REMARK   91  A    between atoms: _222  and  _223
REMARK   92  A    between atoms: _228  and  _230
REMARK   93  A    between atoms: _230  and  _231
REMARK   94  A    between atoms: _230  and  _233
REMARK   95  A    between atoms: _233  and  _234
REMARK   96  A    between atoms: _239  and  _241
REMARK   97  A    between atoms: _241  and  _242
REMARK   98  A    between atoms: _241  and  _244
REMARK   99  A    between atoms: _244  and  _245
REMARK  100  A    between atoms: _251  and  _253
REMARK  101  A    between atoms: _253  and  _254
REMARK  102  A    between atoms: _253  and  _256
REMARK  103  A    between atoms: _256  and  _257
REMARK  104  A    between atoms: _262  and  _264
REMARK  105  A    between atoms: _264  and  _265
REMARK  106  A    between atoms: _267  and  _269
REMARK  107  A    between atoms: _269  and  _270
REMARK  108  A    between atoms: _269  and  _272
REMARK  109  A    between atoms: _272  and  _273
REMARK  110  A    between atoms: _278  and  _279
REMARK  111  A    between atoms: _281  and  _283
REMARK  112  A    between atoms: _283  and  _284
REMARK  113  A    between atoms: _283  and  _286
REMARK  114  A    between atoms: _286  and  _287
REMARK  115  A    between atoms: _287  and  _288
REMARK  116  A    between atoms: _288  and  _289
REMARK  117  A    between atoms: _289  and  _290
REMARK  118  A    between atoms: _294  and  _296
REMARK  119  A    between atoms: _296  and  _297
REMARK  120  A    between atoms: _300  and  _302
REMARK  121  A    between atoms: _302  and  _303
REMARK  122  A    between atoms: _302  and  _305
REMARK  123  A    between atoms: _305  and  _306
REMARK  124  A    between atoms: _306  and  _307
REMARK  125  A    between atoms: _307  and  _308
REMARK  126  A    between atoms: _308  and  _309
REMARK  127  A    between atoms: _313  and  _315
REMARK  128  A    between atoms: _315  and  _316
REMARK  129  A    between atoms: _318  and  _320
REMARK  130  A    between atoms: _320  and  _321
REMARK  131  A    between atoms: _320  and  _323
REMARK  132  A    between atoms: _323  and  _324
REMARK  133  A    between atoms: _324  and  _325
REMARK  134  A    between atoms: _325  and  _326
REMARK  135  A    between atoms: _335  and  _337
REMARK  136  A    between atoms: _337  and  _338
REMARK  137  A    between atoms: _337  and  _340
REMARK  138  A    between atoms: _340  and  _341
REMARK  139  A    between atoms: _341  and  _342
REMARK  140  A    between atoms: _342  and  _343
REMARK  141  A    between atoms: _343  and  _344
REMARK  142  A    between atoms: _348  and  _350
REMARK  143  A    between atoms: _350  and  _351
REMARK  144  A    between atoms: _350  and  _353
REMARK  145  A    between atoms: _353  and  _354
REMARK  146  A    between atoms: _354  and  _355
REMARK                            x       y       z     vdW  Elec       q    Type
REMARK                         _______ _______ _______ _____ _____    ______ ____
ROOT
ATOM      1  CB  HIS A   1     -12.548   5.875  40.302  0.00  0.00    +0.072 C 
ENDROOT
BRANCH   1   2
ATOM      2  CG  HIS A   1     -13.757   6.416  40.936  0.00  0.00    +0.082 A 
ATOM      3  CD2 HIS A   1     -14.136   6.484  42.236  0.00  0.00    +0.115 A 
ATOM      4  NE2 HIS A   1     -15.390   7.051  42.249  0.00  0.00    -0.221 NA
ATOM      5  CE1 HIS A   1     -15.773   7.285  40.993  0.00  0.00    +0.199 A 
ATOM      6  ND1 HIS A   1     -14.788   6.943  40.173  0.00  0.00    -0.227 NA
ENDBRANCH   1   2
BRANCH   1   7
ATOM      7  CA  HIS A   1     -12.677   5.824  38.798  0.00  0.00    +0.139 C 
BRANCH   7   8
ATOM      8  N   HIS A   1     -13.714   4.903  38.372  0.00  0.00    -0.239 NA
ATOM      9  H   HIS A   1     -14.244   4.319  39.050  0.00  0.00    +0.142 HD
ENDBRANCH   7   8
BRANCH   7  10
ATOM     10  C   HIS A   1     -11.316   5.511  38.256  0.00  0.00    +0.224 C 
ATOM     11  O   HIS A   1     -10.421   6.339  38.165  0.00  0.00    -0.287 OA
ENDBRANCH   7  10
ENDBRANCH   1   7
TORSDOF 4
REMARK  Name = ../refined-set-2016/3k5i/3k5i_pocket.pdb
REMARK  146 active torsions:
REMARK  status: ('A' for Active; 'I' for Inactive)
REMARK    1  A    between atoms: _1  and  _3
REMARK    2  A    between atoms: _3  and  _4
REMARK    3  A    between atoms: _3  and  _6
REMARK    4  A    between atoms: _6  and  _7
REMARK    5  A    between atoms: _10  and  _12
REMARK    6  A    between atoms: _12  and  _13
REMARK    7  A    between atoms: _15  and  _17
REMARK    8  A    between atoms: _17  and  _18
REMARK    9  A    between atoms: _20  and  _22
REMARK   10  A    between atoms: _22  and  _23
REMARK   11  A    between atoms: _25  and  _27
REMARK   12  A    between atoms: _27  and  _28
REMARK   13  A    between atoms: _27  and  _30
REMARK   14  A    between atoms: _30  and  _31
REMARK   15  A    between atoms: _31  and  _32
REMARK   16  A    between atoms: _37  and  _39
REMARK   17  A    between atoms: _39  and  _40
REMARK   18  A    between atoms: _39  and  _42
REMARK   19  A    between atoms: _42  and  _43
REMARK   20  A    between atoms: _46  and  _48
REMARK   21  A    between atoms: _48  and  _49
REMARK   22  A    between atoms: _51  and  _53
REMARK   23  A    between atoms: _53  and  _54
REMARK   24  A    between atoms: _53  and  _56
REMARK   25  A    between atoms: _56  and  _57
REMARK   26  A    between atoms: _57  and  _58
REMARK   27  A    between atoms: _58  and  _59
REMARK   28  A    between atoms: _68  and  _70
REMARK   29  A    between atoms: _70  and  _71
REMARK   30  A    between atoms: _70  and  _73
REMARK   31  A    between atoms: _73  and  _74
REMARK   32  A    between atoms: _74  and  _75
REMARK   33  A    between atoms: _77  and  _79
REMARK   34  A    between atoms: _79  and  _80
REMARK   35  A    between atoms: _79  and  _82
REMARK   36  A    between atoms: _82  and  _83
REMARK   37  A    between atoms: _86  and  _88
REMARK   38  A    between atoms: _88  and  _89
REMARK   39  A    between atoms: _88  and  _91
REMARK   40  A    between atoms: _91  and  _92
REMARK   41  A    between atoms: _95  and  _97
REMARK   42  A    between atoms: _97  and  _98
REMARK   43  A    between atoms: _97  and  _100
REMARK   44  A    between atoms: _100  and  _101
REMARK   45  A    between atoms: _104  and  _105
REMARK   46  A    between atoms: _110  and  _112
REMARK   47  A    between atoms: _112  and  _113
REMARK   48  A    between atoms: _116  and  _118
REMARK   49  A    between atoms: _118  and  _119
REMARK   50  A    between atoms: _118  and  _121
REMARK   51  A    between atoms: _121  and  _122
REMARK   52  A    between atoms: _128  and  _130
REMARK   53  A    between atoms: _130  and  _131
REMARK   54  A    between atoms: _134  and  _136
REMARK   55  A    between atoms: _136  and  _137
REMARK   56  A    between atoms: _136  and  _139
REMARK   57  A    between atoms: _139  and  _140
REMARK   58  A    between atoms: _140  and  _141
REMARK   59  A    between atoms: _144  and  _146
REMARK   60  A    between atoms: _146  and  _147
REMARK   61  A    between atoms: _146  and  _149
REMARK   62  A    between atoms: _149  and  _150
REMARK   63  A    between atoms: _153  and  _155
REMARK   64  A    between atoms: _155  and  _156
REMARK   65  A    between atoms: _155  and  _158
REMARK   66  A    between atoms: _158  and  _159
REMARK   67  A    between atoms: _159  and  _160
REMARK   68  A    between atoms: _163  and  _165
REMARK   69  A    between atoms: _165  and  _166
REMARK   70  A    between atoms: _165  and  _168
REMARK   71  A    between atoms: _168  and  _169
REMARK   72  A    between atoms: _174  and  _176
REMARK   73  A    between atoms: _176  and  _177
REMARK   74  A    between atoms: _180  and  _182
REMARK   75  A    between atoms: _182  and  _183
REMARK   76  A    between atoms: _182  and  _185
REMARK   77  A    between atoms: _185  and  _186
REMARK   78  A    between atoms: _186  and  _187
REMARK   79  A    between atoms: _187  and  _188
REMARK   80  A    between atoms: _197  and  _199
REMARK   81  A    between atoms: _199  and  _200
REMARK   82  A    between atoms: _199  and  _202
REMARK   83  A    between atoms: _202  and  _203
REMARK   84  A    between atoms: _206  and  _208
REMARK   85  A    between atoms: _208  and  _209
REMARK   86  A    between atoms: _208  and  _211
REMARK   87  A    between atoms: _211  and  _212
REMARK   88  A    between atoms: _217  and  _219
REMARK   89  A    between atoms: _219  and  _220
REMARK   90  A    between atoms: _219  and  _222
REMARK   91  A    between atoms: _222  and  _223
REMARK   92  A    between atoms: _228  and  _230
REMARK   93  A    between atoms: _230  and  _231
REMARK   94  A    between atoms: _230  and  _233
REMARK   95  A    between atoms: _233  and  _234
REMARK   96  A    between atoms: _239  and  _241
REMARK   97  A    between atoms: _241  and  _242
REMARK   98  A    between atoms: _241  and  _244
REMARK   99  A    between atoms: _244  and  _245
REMARK  100  A    between atoms: _251  and  _253
REMARK  101  A    between atoms: _253  and  _254
REMARK  102  A    between atoms: _253  and  _256
REMARK  103  A    between atoms: _256  and  _257
REMARK  104  A    between atoms: _262  and  _264
REMARK  105  A    between atoms: _264  and  _265
REMARK  106  A    between atoms: _267  and  _269
REMARK  107  A    between atoms: _269  and  _270
REMARK  108  A    between atoms: _269  and  _272
REMARK  109  A    between atoms: _272  and  _273
REMARK  110  A    between atoms: _278  and  _279
REMARK  111  A    between atoms: _281  and  _283
REMARK  112  A    between atoms: _283  and  _284
REMARK  113  A    between atoms: _283  and  _286
REMARK  114  A    between atoms: _286  and  _287
REMARK  115  A    between atoms: _287  and  _288
REMARK  116  A    between atoms: _288  and  _289
REMARK  117  A    between atoms: _289  and  _290
REMARK  118  A    between atoms: _294  and  _296
REMARK  119  A    between atoms: _296  and  _297
REMARK  120  A    between atoms: _300  and  _302
REMARK  121  A    between atoms: _302  and  _303
REMARK  122  A    between atoms: _302  and  _305
REMARK  123  A    between atoms: _305  and  _306
REMARK  124  A    between atoms: _306  and  _307
REMARK  125  A    between atoms: _307  and  _308
REMARK  126  A    between atoms: _308  and  _309
REMARK  127  A    between atoms: _313  and  _315
REMARK  128  A    between atoms: _315  and  _316
REMARK  129  A    between atoms: _318  and  _320
REMARK  130  A    between atoms: _320  and  _321
REMARK  131  A    between atoms: _320  and  _323
REMARK  132  A    between atoms: _323  and  _324
REMARK  133  A    between atoms: _324  and  _325
REMARK  134  A    between atoms: _325  and  _326
REMARK  135  A    between atoms: _335  and  _337
REMARK  136  A    between atoms: _337  and  _338
REMARK  137  A    between atoms: _337  and  _340
REMARK  138  A    between atoms: _340  and  _341
REMARK  139  A    between atoms: _341  and  _342
REMARK  140  A    between atoms: _342  and  _343
REMARK  141  A    between atoms: _343  and  _344
REMARK  142  A    between atoms: _348  and  _350
REMARK  143  A    between atoms: _350  and  _351
REMARK  144  A    between atoms: _350  and  _353
REMARK  145  A    between atoms: _353  and  _354
REMARK  146  A    between atoms: _354  and  _355
REMARK                            x       y       z     vdW  Elec       q    Type
REMARK                         _______ _______ _______ _____ _____    ______ ____
ROOT
ATOM      1  CB  PHE A   1     -14.471  13.111  35.416  0.00  0.00    +0.051 C 
ENDROOT
BRANCH   1   2
ATOM      2  CG  PHE A   1     -14.685  12.179  36.535  0.00  0.00    -0.020 A 
ATOM      3  CD2 PHE A   1     -15.892  12.173  37.186  0.00  0.00    -0.004 A 
ATOM      4  CE2 PHE A   1     -16.114  11.194  38.212  0.00  0.00    -0.000 A 
ATOM      5  CZ  PHE A   1     -15.146  10.225  38.517  0.00  0.00    -0.000 A 
ATOM      6  CE1 PHE A   1     -13.949  10.167  37.765  0.00  0.00    -0.000 A 
ATOM      7  CD1 PHE A   1     -13.745  11.198  36.807  0.00  0.00    -0.004 A 
ENDBRANCH   1   2
BRANCH   1   8
ATOM      8  CA  PHE A   1     -15.265  12.631  34.190  0.00  0.00    +0.137 C 
BRANCH   8   9
ATOM      9  N   PHE A   1     -14.853  11.267  33.853  0.00  0.00    -0.239 NA
ATOM     10  H   PHE A   1     -13.935  10.905  34.182  0.00  0.00    +0.142 HD
ENDBRANCH   8   9
BRANCH   8  11
ATOM     11  C   PHE A   1     -15.094  13.510  32.947  0.00  0.00    +0.224 C 
ATOM     12  O   PHE A   1     -15.936  14.321  32.553  0.00  0.00    -0.287 OA
ENDBRANCH   8  11
ENDBRANCH   1   8
TORSDOF 4
REMARK  Name = ../refined-set-2016/3k5i/3k5i_pocket.pdb
REMARK  146 active torsions:
REMARK  status: ('A' for Active; 'I' for Inactive)
REMARK    1  A    between atoms: _1  and  _3
REMARK    2  A    between atoms: _3  and  _4
REMARK    3  A    between atoms: _3  and  _6
REMARK    4  A    between atoms: _6  and  _7
REMARK    5  A    between atoms: _10  and  _12
REMARK    6  A    between atoms: _12  and  _13
REMARK    7  A    between atoms: _15  and  _17
REMARK    8  A    between atoms: _17  and  _18
REMARK    9  A    between atoms: _20  and  _22
REMARK   10  A    between atoms: _22  and  _23
REMARK   11  A    between atoms: _25  and  _27
REMARK   12  A    between atoms: _27  and  _28
REMARK   13  A    between atoms: _27  and  _30
REMARK   14  A    between atoms: _30  and  _31
REMARK   15  A    between atoms: _31  and  _32
REMARK   16  A    between atoms: _37  and  _39
REMARK   17  A    between atoms: _39  and  _40
REMARK   18  A    between atoms: _39  and  _42
REMARK   19  A    between atoms: _42  and  _43
REMARK   20  A    between atoms: _46  and  _48
REMARK   21  A    between atoms: _48  and  _49
REMARK   22  A    between atoms: _51  and  _53
REMARK   23  A    between atoms: _53  and  _54
REMARK   24  A    between atoms: _53  and  _56
REMARK   25  A    between atoms: _56  and  _57
REMARK   26  A    between atoms: _57  and  _58
REMARK   27  A    between atoms: _58  and  _59
REMARK   28  A    between atoms: _68  and  _70
REMARK   29  A    between atoms: _70  and  _71
REMARK   30  A    between atoms: _70  and  _73
REMARK   31  A    between atoms: _73  and  _74
REMARK   32  A    between atoms: _74  and  _75
REMARK   33  A    between atoms: _77  and  _79
REMARK   34  A    between atoms: _79  and  _80
REMARK   35  A    between atoms: _79  and  _82
REMARK   36  A    between atoms: _82  and  _83
REMARK   37  A    between atoms: _86  and  _88
REMARK   38  A    between atoms: _88  and  _89
REMARK   39  A    between atoms: _88  and  _91
REMARK   40  A    between atoms: _91  and  _92
REMARK   41  A    between atoms: _95  and  _97
REMARK   42  A    between atoms: _97  and  _98
REMARK   43  A    between atoms: _97  and  _100
REMARK   44  A    between atoms: _100  and  _101
REMARK   45  A    between atoms: _104  and  _105
REMARK   46  A    between atoms: _110  and  _112
REMARK   47  A    between atoms: _112  and  _113
REMARK   48  A    between atoms: _116  and  _118
REMARK   49  A    between atoms: _118  and  _119
REMARK   50  A    between atoms: _118  and  _121
REMARK   51  A    between atoms: _121  and  _122
REMARK   52  A    between atoms: _128  and  _130
REMARK   53  A    between atoms: _130  and  _131
REMARK   54  A    between atoms: _134  and  _136
REMARK   55  A    between atoms: _136  and  _137
REMARK   56  A    between atoms: _136  and  _139
REMARK   57  A    between atoms: _139  and  _140
REMARK   58  A    between atoms: _140  and  _141
REMARK   59  A    between atoms: _144  and  _146
REMARK   60  A    between atoms: _146  and  _147
REMARK   61  A    between atoms: _146  and  _149
REMARK   62  A    between atoms: _149  and  _150
REMARK   63  A    between atoms: _153  and  _155
REMARK   64  A    between atoms: _155  and  _156
REMARK   65  A    between atoms: _155  and  _158
REMARK   66  A    between atoms: _158  and  _159
REMARK   67  A    between atoms: _159  and  _160
REMARK   68  A    between atoms: _163  and  _165
REMARK   69  A    between atoms: _165  and  _166
REMARK   70  A    between atoms: _165  and  _168
REMARK   71  A    between atoms: _168  and  _169
REMARK   72  A    between atoms: _174  and  _176
REMARK   73  A    between atoms: _176  and  _177
REMARK   74  A    between atoms: _180  and  _182
REMARK   75  A    between atoms: _182  and  _183
REMARK   76  A    between atoms: _182  and  _185
REMARK   77  A    between atoms: _185  and  _186
REMARK   78  A    between atoms: _186  and  _187
REMARK   79  A    between atoms: _187  and  _188
REMARK   80  A    between atoms: _197  and  _199
REMARK   81  A    between atoms: _199  and  _200
REMARK   82  A    between atoms: _199  and  _202
REMARK   83  A    between atoms: _202  and  _203
REMARK   84  A    between atoms: _206  and  _208
REMARK   85  A    between atoms: _208  and  _209
REMARK   86  A    between atoms: _208  and  _211
REMARK   87  A    between atoms: _211  and  _212
REMARK   88  A    between atoms: _217  and  _219
REMARK   89  A    between atoms: _219  and  _220
REMARK   90  A    between atoms: _219  and  _222
REMARK   91  A    between atoms: _222  and  _223
REMARK   92  A    between atoms: _228  and  _230
REMARK   93  A    between atoms: _230  and  _231
REMARK   94  A    between atoms: _230  and  _233
REMARK   95  A    between atoms: _233  and  _234
REMARK   96  A    between atoms: _239  and  _241
REMARK   97  A    between atoms: _241  and  _242
REMARK   98  A    between atoms: _241  and  _244
REMARK   99  A    between atoms: _244  and  _245
REMARK  100  A    between atoms: _251  and  _253
REMARK  101  A    between atoms: _253  and  _254
REMARK  102  A    between atoms: _253  and  _256
REMARK  103  A    between atoms: _256  and  _257
REMARK  104  A    between atoms: _262  and  _264
REMARK  105  A    between atoms: _264  and  _265
REMARK  106  A    between atoms: _267  and  _269
REMARK  107  A    between atoms: _269  and  _270
REMARK  108  A    between atoms: _269  and  _272
REMARK  109  A    between atoms: _272  and  _273
REMARK  110  A    between atoms: _278  and  _279
REMARK  111  A    between atoms: _281  and  _283
REMARK  112  A    between atoms: _283  and  _284
REMARK  113  A    between atoms: _283  and  _286
REMARK  114  A    between atoms: _286  and  _287
REMARK  115  A    between atoms: _287  and  _288
REMARK  116  A    between atoms: _288  and  _289
REMARK  117  A    between atoms: _289  and  _290
REMARK  118  A    between atoms: _294  and  _296
REMARK  119  A    between atoms: _296  and  _297
REMARK  120  A    between atoms: _300  and  _302
REMARK  121  A    between atoms: _302  and  _303
REMARK  122  A    between atoms: _302  and  _305
REMARK  123  A    between atoms: _305  and  _306
REMARK  124  A    between atoms: _306  and  _307
REMARK  125  A    between atoms: _307  and  _308
REMARK  126  A    between atoms: _308  and  _309
REMARK  127  A    between atoms: _313  and  _315
REMARK  128  A    between atoms: _315  and  _316
REMARK  129  A    between atoms: _318  and  _320
REMARK  130  A    between atoms: _320  and  _321
REMARK  131  A    between atoms: _320  and  _323
REMARK  132  A    between atoms: _323  and  _324
REMARK  133  A    between atoms: _324  and  _325
REMARK  134  A    between atoms: _325  and  _326
REMARK  135  A    between atoms: _335  and  _337
REMARK  136  A    between atoms: _337  and  _338
REMARK  137  A    between atoms: _337  and  _340
REMARK  138  A    between atoms: _340  and  _341
REMARK  139  A    between atoms: _341  and  _342
REMARK  140  A    between atoms: _342  and  _343
REMARK  141  A    between atoms: _343  and  _344
REMARK  142  A    between atoms: _348  and  _350
REMARK  143  A    between atoms: _350  and  _351
REMARK  144  A    between atoms: _350  and  _353
REMARK  145  A    between atoms: _353  and  _354
REMARK  146  A    between atoms: _354  and  _355
REMARK                            x       y       z     vdW  Elec       q    Type
REMARK                         _______ _______ _______ _____ _____    ______ ____
ROOT
ATOM      1  CB  ASN A   1     -13.477   1.913  47.761  0.00  0.00    +0.110 C 
ENDROOT
BRANCH   1   2
ATOM      2  CG  ASN A   1     -14.375   2.419  46.627  0.00  0.00    +0.221 C 
ATOM      3  ND2 ASN A   1     -15.670   2.013  46.534  0.00  0.00    -0.329 N 
ATOM      4 HD21 ASN A   1     -16.064   1.364  47.245  0.00  0.00    +0.145 HD
ATOM      5 HD22 ASN A   1     -16.266   2.352  45.752  0.00  0.00    +0.145 HD
ATOM      6  OD1 ASN A   1     -13.867   3.177  45.822  0.00  0.00    -0.275 OA
ENDBRANCH   1   2
BRANCH   1   7
ATOM      7  CA  ASN A   1     -12.007   2.401  47.631  0.00  0.00    +0.142 C 
BRANCH   7   8
ATOM      8  N   ASN A   1     -11.228   1.345  47.000  0.00  0.00    -0.239 NA
ATOM      9  H   ASN A   1     -11.616   0.415  46.744  0.00  0.00    +0.142 HD
ENDBRANCH   7   8
BRANCH   7  10
ATOM     10  C   ASN A   1     -11.536   2.559  49.085  0.00  0.00    +0.225 C 
ATOM     11  O   ASN A   1     -11.177   1.563  49.708  0.00  0.00    -0.287 OA
ENDBRANCH   7  10
ENDBRANCH   1   7
TORSDOF 4
REMARK  Name = ../refined-set-2016/3k5i/3k5i_pocket.pdb
REMARK  146 active torsions:
REMARK  status: ('A' for Active; 'I' for Inactive)
REMARK    1  A    between atoms: _1  and  _3
REMARK    2  A    between atoms: _3  and  _4
REMARK    3  A    between atoms: _3  and  _6
REMARK    4  A    between atoms: _6  and  _7
REMARK    5  A    between atoms: _10  and  _12
REMARK    6  A    between atoms: _12  and  _13
REMARK    7  A    between atoms: _15  and  _17
REMARK    8  A    between atoms: _17  and  _18
REMARK    9  A    between atoms: _20  and  _22
REMARK   10  A    between atoms: _22  and  _23
REMARK   11  A    between atoms: _25  and  _27
REMARK   12  A    between atoms: _27  and  _28
REMARK   13  A    between atoms: _27  and  _30
REMARK   14  A    between atoms: _30  and  _31
REMARK   15  A    between atoms: _31  and  _32
REMARK   16  A    between atoms: _37  and  _39
REMARK   17  A    between atoms: _39  and  _40
REMARK   18  A    between atoms: _39  and  _42
REMARK   19  A    between atoms: _42  and  _43
REMARK   20  A    between atoms: _46  and  _48
REMARK   21  A    between atoms: _48  and  _49
REMARK   22  A    between atoms: _51  and  _53
REMARK   23  A    between atoms: _53  and  _54
REMARK   24  A    between atoms: _53  and  _56
REMARK   25  A    between atoms: _56  and  _57
REMARK   26  A    between atoms: _57  and  _58
REMARK   27  A    between atoms: _58  and  _59
REMARK   28  A    between atoms: _68  and  _70
REMARK   29  A    between atoms: _70  and  _71
REMARK   30  A    between atoms: _70  and  _73
REMARK   31  A    between atoms: _73  and  _74
REMARK   32  A    between atoms: _74  and  _75
REMARK   33  A    between atoms: _77  and  _79
REMARK   34  A    between atoms: _79  and  _80
REMARK   35  A    between atoms: _79  and  _82
REMARK   36  A    between atoms: _82  and  _83
REMARK   37  A    between atoms: _86  and  _88
REMARK   38  A    between atoms: _88  and  _89
REMARK   39  A    between atoms: _88  and  _91
REMARK   40  A    between atoms: _91  and  _92
REMARK   41  A    between atoms: _95  and  _97
REMARK   42  A    between atoms: _97  and  _98
REMARK   43  A    between atoms: _97  and  _100
REMARK   44  A    between atoms: _100  and  _101
REMARK   45  A    between atoms: _104  and  _105
REMARK   46  A    between atoms: _110  and  _112
REMARK   47  A    between atoms: _112  and  _113
REMARK   48  A    between atoms: _116  and  _118
REMARK   49  A    between atoms: _118  and  _119
REMARK   50  A    between atoms: _118  and  _121
REMARK   51  A    between atoms: _121  and  _122
REMARK   52  A    between atoms: _128  and  _130
REMARK   53  A    between atoms: _130  and  _131
REMARK   54  A    between atoms: _134  and  _136
REMARK   55  A    between atoms: _136  and  _137
REMARK   56  A    between atoms: _136  and  _139
REMARK   57  A    between atoms: _139  and  _140
REMARK   58  A    between atoms: _140  and  _141
REMARK   59  A    between atoms: _144  and  _146
REMARK   60  A    between atoms: _146  and  _147
REMARK   61  A    between atoms: _146  and  _149
REMARK   62  A    between atoms: _149  and  _150
REMARK   63  A    between atoms: _153  and  _155
REMARK   64  A    between atoms: _155  and  _156
REMARK   65  A    between atoms: _155  and  _158
REMARK   66  A    between atoms: _158  and  _159
REMARK   67  A    between atoms: _159  and  _160
REMARK   68  A    between atoms: _163  and  _165
REMARK   69  A    between atoms: _165  and  _166
REMARK   70  A    between atoms: _165  and  _168
REMARK   71  A    between atoms: _168  and  _169
REMARK   72  A    between atoms: _174  and  _176
REMARK   73  A    between atoms: _176  and  _177
REMARK   74  A    between atoms: _180  and  _182
REMARK   75  A    between atoms: _182  and  _183
REMARK   76  A    between atoms: _182  and  _185
REMARK   77  A    between atoms: _185  and  _186
REMARK   78  A    between atoms: _186  and  _187
REMARK   79  A    between atoms: _187  and  _188
REMARK   80  A    between atoms: _197  and  _199
REMARK   81  A    between atoms: _199  and  _200
REMARK   82  A    between atoms: _199  and  _202
REMARK   83  A    between atoms: _202  and  _203
REMARK   84  A    between atoms: _206  and  _208
REMARK   85  A    between atoms: _208  and  _209
REMARK   86  A    between atoms: _208  and  _211
REMARK   87  A    between atoms: _211  and  _212
REMARK   88  A    between atoms: _217  and  _219
REMARK   89  A    between atoms: _219  and  _220
REMARK   90  A    between atoms: _219  and  _222
REMARK   91  A    between atoms: _222  and  _223
REMARK   92  A    between atoms: _228  and  _230
REMARK   93  A    between atoms: _230  and  _231
REMARK   94  A    between atoms: _230  and  _233
REMARK   95  A    between atoms: _233  and  _234
REMARK   96  A    between atoms: _239  and  _241
REMARK   97  A    between atoms: _241  and  _242
REMARK   98  A    between atoms: _241  and  _244
REMARK   99  A    between atoms: _244  and  _245
REMARK  100  A    between atoms: _251  and  _253
REMARK  101  A    between atoms: _253  and  _254
REMARK  102  A    between atoms: _253  and  _256
REMARK  103  A    between atoms: _256  and  _257
REMARK  104  A    between atoms: _262  and  _264
REMARK  105  A    between atoms: _264  and  _265
REMARK  106  A    between atoms: _267  and  _269
REMARK  107  A    between atoms: _269  and  _270
REMARK  108  A    between atoms: _269  and  _272
REMARK  109  A    between atoms: _272  and  _273
REMARK  110  A    between atoms: _278  and  _279
REMARK  111  A    between atoms: _281  and  _283
REMARK  112  A    between atoms: _283  and  _284
REMARK  113  A    between atoms: _283  and  _286
REMARK  114  A    between atoms: _286  and  _287
REMARK  115  A    between atoms: _287  and  _288
REMARK  116  A    between atoms: _288  and  _289
REMARK  117  A    between atoms: _289  and  _290
REMARK  118  A    between atoms: _294  and  _296
REMARK  119  A    between atoms: _296  and  _297
REMARK  120  A    between atoms: _300  and  _302
REMARK  121  A    between atoms: _302  and  _303
REMARK  122  A    between atoms: _302  and  _305
REMARK  123  A    between atoms: _305  and  _306
REMARK  124  A    between atoms: _306  and  _307
REMARK  125  A    between atoms: _307  and  _308
REMARK  126  A    between atoms: _308  and  _309
REMARK  127  A    between atoms: _313  and  _315
REMARK  128  A    between atoms: _315  and  _316
REMARK  129  A    between atoms: _318  and  _320
REMARK  130  A    between atoms: _320  and  _321
REMARK  131  A    between atoms: _320  and  _323
REMARK  132  A    between atoms: _323  and  _324
REMARK  133  A    between atoms: _324  and  _325
REMARK  134  A    between atoms: _325  and  _326
REMARK  135  A    between atoms: _335  and  _337
REMARK  136  A    between atoms: _337  and  _338
REMARK  137  A    between atoms: _337  and  _340
REMARK  138  A    between atoms: _340  and  _341
REMARK  139  A    between atoms: _341  and  _342
REMARK  140  A    between atoms: _342  and  _343
REMARK  141  A    between atoms: _343  and  _344
REMARK  142  A    between atoms: _348  and  _350
REMARK  143  A    between atoms: _350  and  _351
REMARK  144  A    between atoms: _350  and  _353
REMARK  145  A    between atoms: _353  and  _354
REMARK  146  A    between atoms: _354  and  _355
REMARK                            x       y       z     vdW  Elec       q    Type
REMARK                         _______ _______ _______ _____ _____    ______ ____
ROOT
ATOM      1  CA  GLY A   1     -15.062   4.725  56.544  0.00  0.00    +0.156 C 
ENDROOT
BRANCH   1   2
ATOM      2  N   GLY A   1     -14.986   4.391  55.136  0.00  0.00    -0.238 NA
ATOM      3  H   GLY A   1     -15.597   4.874  54.447  0.00  0.00    +0.142 HD
ENDBRANCH   1   2
BRANCH   1   4
ATOM      4  C   GLY A   1     -15.100   3.451  57.391  0.00  0.00    +0.226 C 
ATOM      5  O   GLY A   1     -15.743   2.450  57.066  0.00  0.00    -0.287 OA
ENDBRANCH   1   4
TORSDOF 2
REMARK  Name = ../refined-set-2016/3k5i/3k5i_pocket.pdb
REMARK  146 active torsions:
REMARK  status: ('A' for Active; 'I' for Inactive)
REMARK    1  A    between atoms: _1  and  _3
REMARK    2  A    between atoms: _3  and  _4
REMARK    3  A    between atoms: _3  and  _6
REMARK    4  A    between atoms: _6  and  _7
REMARK    5  A    between atoms: _10  and  _12
REMARK    6  A    between atoms: _12  and  _13
REMARK    7  A    between atoms: _15  and  _17
REMARK    8  A    between atoms: _17  and  _18
REMARK    9  A    between atoms: _20  and  _22
REMARK   10  A    between atoms: _22  and  _23
REMARK   11  A    between atoms: _25  and  _27
REMARK   12  A    between atoms: _27  and  _28
REMARK   13  A    between atoms: _27  and  _30
REMARK   14  A    between atoms: _30  and  _31
REMARK   15  A    between atoms: _31  and  _32
REMARK   16  A    between atoms: _37  and  _39
REMARK   17  A    between atoms: _39  and  _40
REMARK   18  A    between atoms: _39  and  _42
REMARK   19  A    between atoms: _42  and  _43
REMARK   20  A    between atoms: _46  and  _48
REMARK   21  A    between atoms: _48  and  _49
REMARK   22  A    between atoms: _51  and  _53
REMARK   23  A    between atoms: _53  and  _54
REMARK   24  A    between atoms: _53  and  _56
REMARK   25  A    between atoms: _56  and  _57
REMARK   26  A    between atoms: _57  and  _58
REMARK   27  A    between atoms: _58  and  _59
REMARK   28  A    between atoms: _68  and  _70
REMARK   29  A    between atoms: _70  and  _71
REMARK   30  A    between atoms: _70  and  _73
REMARK   31  A    between atoms: _73  and  _74
REMARK   32  A    between atoms: _74  and  _75
REMARK   33  A    between atoms: _77  and  _79
REMARK   34  A    between atoms: _79  and  _80
REMARK   35  A    between atoms: _79  and  _82
REMARK   36  A    between atoms: _82  and  _83
REMARK   37  A    between atoms: _86  and  _88
REMARK   38  A    between atoms: _88  and  _89
REMARK   39  A    between atoms: _88  and  _91
REMARK   40  A    between atoms: _91  and  _92
REMARK   41  A    between atoms: _95  and  _97
REMARK   42  A    between atoms: _97  and  _98
REMARK   43  A    between atoms: _97  and  _100
REMARK   44  A    between atoms: _100  and  _101
REMARK   45  A    between atoms: _104  and  _105
REMARK   46  A    between atoms: _110  and  _112
REMARK   47  A    between atoms: _112  and  _113
REMARK   48  A    between atoms: _116  and  _118
REMARK   49  A    between atoms: _118  and  _119
REMARK   50  A    between atoms: _118  and  _121
REMARK   51  A    between atoms: _121  and  _122
REMARK   52  A    between atoms: _128  and  _130
REMARK   53  A    between atoms: _130  and  _131
REMARK   54  A    between atoms: _134  and  _136
REMARK   55  A    between atoms: _136  and  _137
REMARK   56  A    between atoms: _136  and  _139
REMARK   57  A    between atoms: _139  and  _140
REMARK   58  A    between atoms: _140  and  _141
REMARK   59  A    between atoms: _144  and  _146
REMARK   60  A    between atoms: _146  and  _147
REMARK   61  A    between atoms: _146  and  _149
REMARK   62  A    between atoms: _149  and  _150
REMARK   63  A    between atoms: _153  and  _155
REMARK   64  A    between atoms: _155  and  _156
REMARK   65  A    between atoms: _155  and  _158
REMARK   66  A    between atoms: _158  and  _159
REMARK   67  A    between atoms: _159  and  _160
REMARK   68  A    between atoms: _163  and  _165
REMARK   69  A    between atoms: _165  and  _166
REMARK   70  A    between atoms: _165  and  _168
REMARK   71  A    between atoms: _168  and  _169
REMARK   72  A    between atoms: _174  and  _176
REMARK   73  A    between atoms: _176  and  _177
REMARK   74  A    between atoms: _180  and  _182
REMARK   75  A    between atoms: _182  and  _183
REMARK   76  A    between atoms: _182  and  _185
REMARK   77  A    between atoms: _185  and  _186
REMARK   78  A    between atoms: _186  and  _187
REMARK   79  A    between atoms: _187  and  _188
REMARK   80  A    between atoms: _197  and  _199
REMARK   81  A    between atoms: _199  and  _200
REMARK   82  A    between atoms: _199  and  _202
REMARK   83  A    between atoms: _202  and  _203
REMARK   84  A    between atoms: _206  and  _208
REMARK   85  A    between atoms: _208  and  _209
REMARK   86  A    between atoms: _208  and  _211
REMARK   87  A    between atoms: _211  and  _212
REMARK   88  A    between atoms: _217  and  _219
REMARK   89  A    between atoms: _219  and  _220
REMARK   90  A    between atoms: _219  and  _222
REMARK   91  A    between atoms: _222  and  _223
REMARK   92  A    between atoms: _228  and  _230
REMARK   93  A    between atoms: _230  and  _231
REMARK   94  A    between atoms: _230  and  _233
REMARK   95  A    between atoms: _233  and  _234
REMARK   96  A    between atoms: _239  and  _241
REMARK   97  A    between atoms: _241  and  _242
REMARK   98  A    between atoms: _241  and  _244
REMARK   99  A    between atoms: _244  and  _245
REMARK  100  A    between atoms: _251  and  _253
REMARK  101  A    between atoms: _253  and  _254
REMARK  102  A    between atoms: _253  and  _256
REMARK  103  A    between atoms: _256  and  _257
REMARK  104  A    between atoms: _262  and  _264
REMARK  105  A    between atoms: _264  and  _265
REMARK  106  A    between atoms: _267  and  _269
REMARK  107  A    between atoms: _269  and  _270
REMARK  108  A    between atoms: _269  and  _272
REMARK  109  A    between atoms: _272  and  _273
REMARK  110  A    between atoms: _278  and  _279
REMARK  111  A    between atoms: _281  and  _283
REMARK  112  A    between atoms: _283  and  _284
REMARK  113  A    between atoms: _283  and  _286
REMARK  114  A    between atoms: _286  and  _287
REMARK  115  A    between atoms: _287  and  _288
REMARK  116  A    between atoms: _288  and  _289
REMARK  117  A    between atoms: _289  and  _290
REMARK  118  A    between atoms: _294  and  _296
REMARK  119  A    between atoms: _296  and  _297
REMARK  120  A    between atoms: _300  and  _302
REMARK  121  A    between atoms: _302  and  _303
REMARK  122  A    between atoms: _302  and  _305
REMARK  123  A    between atoms: _305  and  _306
REMARK  124  A    between atoms: _306  and  _307
REMARK  125  A    between atoms: _307  and  _308
REMARK  126  A    between atoms: _308  and  _309
REMARK  127  A    between atoms: _313  and  _315
REMARK  128  A    between atoms: _315  and  _316
REMARK  129  A    between atoms: _318  and  _320
REMARK  130  A    between atoms: _320  and  _321
REMARK  131  A    between atoms: _320  and  _323
REMARK  132  A    between atoms: _323  and  _324
REMARK  133  A    between atoms: _324  and  _325
REMARK  134  A    between atoms: _325  and  _326
REMARK  135  A    between atoms: _335  and  _337
REMARK  136  A    between atoms: _337  and  _338
REMARK  137  A    between atoms: _337  and  _340
REMARK  138  A    between atoms: _340  and  _341
REMARK  139  A    between atoms: _341  and  _342
REMARK  140  A    between atoms: _342  and  _343
REMARK  141  A    between atoms: _343  and  _344
REMARK  142  A    between atoms: _348  and  _350
REMARK  143  A    between atoms: _350  and  _351
REMARK  144  A    between atoms: _350  and  _353
REMARK  145  A    between atoms: _353  and  _354
REMARK  146  A    between atoms: _354  and  _355
REMARK                            x       y       z     vdW  Elec       q    Type
REMARK                         _______ _______ _______ _____ _____    ______ ____
ROOT
ATOM      1  CG  TYR A   1     -13.729  11.347  47.992  0.00  0.00    -0.020 A 
ATOM      2  CD2 TYR A   1     -14.472  10.193  48.140  0.00  0.00    -0.001 A 
ATOM      3  CE2 TYR A   1     -14.343   9.136  47.291  0.00  0.00    +0.036 A 
ATOM      4  CZ  TYR A   1     -13.536   9.183  46.180  0.00  0.00    +0.134 A 
ATOM      5  CE1 TYR A   1     -12.780  10.325  45.990  0.00  0.00    +0.036 A 
ATOM      6  CD1 TYR A   1     -12.853  11.386  46.930  0.00  0.00    -0.001 A 
ENDROOT
BRANCH   4   7
ATOM      7  OH  TYR A   1     -13.397   8.031  45.362  0.00  0.00    -0.506 OA
ATOM      8  HH  TYR A   1     -14.029   7.333  45.668  0.00  0.00    +0.292 HD
ENDBRANCH   4   7
BRANCH   1   9
ATOM      9  CB  TYR A   1     -13.884  12.501  48.972  0.00  0.00    +0.051 C 
BRANCH   9  10
ATOM     10  CA  TYR A   1     -12.718  13.475  48.977  0.00  0.00    +0.137 C 
BRANCH  10  11
ATOM     11  N   TYR A   1     -11.538  12.642  49.233  0.00  0.00    -0.239 NA
ATOM     12  H   TYR A   1     -11.652  11.762  49.776  0.00  0.00    +0.142 HD
ENDBRANCH  10  11
BRANCH  10  13
ATOM     13  C   TYR A   1     -13.113  14.741  49.741  0.00  0.00    +0.224 C 
ATOM     14  O   TYR A   1     -14.127  15.431  49.439  0.00  0.00    -0.287 OA
ENDBRANCH  10  13
ENDBRANCH   9  10
ENDBRANCH   1   9
TORSDOF 5
REMARK  Name = ../refined-set-2016/3k5i/3k5i_pocket.pdb
REMARK  146 active torsions:
REMARK  status: ('A' for Active; 'I' for Inactive)
REMARK    1  A    between atoms: _1  and  _3
REMARK    2  A    between atoms: _3  and  _4
REMARK    3  A    between atoms: _3  and  _6
REMARK    4  A    between atoms: _6  and  _7
REMARK    5  A    between atoms: _10  and  _12
REMARK    6  A    between atoms: _12  and  _13
REMARK    7  A    between atoms: _15  and  _17
REMARK    8  A    between atoms: _17  and  _18
REMARK    9  A    between atoms: _20  and  _22
REMARK   10  A    between atoms: _22  and  _23
REMARK   11  A    between atoms: _25  and  _27
REMARK   12  A    between atoms: _27  and  _28
REMARK   13  A    between atoms: _27  and  _30
REMARK   14  A    between atoms: _30  and  _31
REMARK   15  A    between atoms: _31  and  _32
REMARK   16  A    between atoms: _37  and  _39
REMARK   17  A    between atoms: _39  and  _40
REMARK   18  A    between atoms: _39  and  _42
REMARK   19  A    between atoms: _42  and  _43
REMARK   20  A    between atoms: _46  and  _48
REMARK   21  A    between atoms: _48  and  _49
REMARK   22  A    between atoms: _51  and  _53
REMARK   23  A    between atoms: _53  and  _54
REMARK   24  A    between atoms: _53  and  _56
REMARK   25  A    between atoms: _56  and  _57
REMARK   26  A    between atoms: _57  and  _58
REMARK   27  A    between atoms: _58  and  _59
REMARK   28  A    between atoms: _68  and  _70
REMARK   29  A    between atoms: _70  and  _71
REMARK   30  A    between atoms: _70  and  _73
REMARK   31  A    between atoms: _73  and  _74
REMARK   32  A    between atoms: _74  and  _75
REMARK   33  A    between atoms: _77  and  _79
REMARK   34  A    between atoms: _79  and  _80
REMARK   35  A    between atoms: _79  and  _82
REMARK   36  A    between atoms: _82  and  _83
REMARK   37  A    between atoms: _86  and  _88
REMARK   38  A    between atoms: _88  and  _89
REMARK   39  A    between atoms: _88  and  _91
REMARK   40  A    between atoms: _91  and  _92
REMARK   41  A    between atoms: _95  and  _97
REMARK   42  A    between atoms: _97  and  _98
REMARK   43  A    between atoms: _97  and  _100
REMARK   44  A    between atoms: _100  and  _101
REMARK   45  A    between atoms: _104  and  _105
REMARK   46  A    between atoms: _110  and  _112
REMARK   47  A    between atoms: _112  and  _113
REMARK   48  A    between atoms: _116  and  _118
REMARK   49  A    between atoms: _118  and  _119
REMARK   50  A    between atoms: _118  and  _121
REMARK   51  A    between atoms: _121  and  _122
REMARK   52  A    between atoms: _128  and  _130
REMARK   53  A    between atoms: _130  and  _131
REMARK   54  A    between atoms: _134  and  _136
REMARK   55  A    between atoms: _136  and  _137
REMARK   56  A    between atoms: _136  and  _139
REMARK   57  A    between atoms: _139  and  _140
REMARK   58  A    between atoms: _140  and  _141
REMARK   59  A    between atoms: _144  and  _146
REMARK   60  A    between atoms: _146  and  _147
REMARK   61  A    between atoms: _146  and  _149
REMARK   62  A    between atoms: _149  and  _150
REMARK   63  A    between atoms: _153  and  _155
REMARK   64  A    between atoms: _155  and  _156
REMARK   65  A    between atoms: _155  and  _158
REMARK   66  A    between atoms: _158  and  _159
REMARK   67  A    between atoms: _159  and  _160
REMARK   68  A    between atoms: _163  and  _165
REMARK   69  A    between atoms: _165  and  _166
REMARK   70  A    between atoms: _165  and  _168
REMARK   71  A    between atoms: _168  and  _169
REMARK   72  A    between atoms: _174  and  _176
REMARK   73  A    between atoms: _176  and  _177
REMARK   74  A    between atoms: _180  and  _182
REMARK   75  A    between atoms: _182  and  _183
REMARK   76  A    between atoms: _182  and  _185
REMARK   77  A    between atoms: _185  and  _186
REMARK   78  A    between atoms: _186  and  _187
REMARK   79  A    between atoms: _187  and  _188
REMARK   80  A    between atoms: _197  and  _199
REMARK   81  A    between atoms: _199  and  _200
REMARK   82  A    between atoms: _199  and  _202
REMARK   83  A    between atoms: _202  and  _203
REMARK   84  A    between atoms: _206  and  _208
REMARK   85  A    between atoms: _208  and  _209
REMARK   86  A    between atoms: _208  and  _211
REMARK   87  A    between atoms: _211  and  _212
REMARK   88  A    between atoms: _217  and  _219
REMARK   89  A    between atoms: _219  and  _220
REMARK   90  A    between atoms: _219  and  _222
REMARK   91  A    between atoms: _222  and  _223
REMARK   92  A    between atoms: _228  and  _230
REMARK   93  A    between atoms: _230  and  _231
REMARK   94  A    between atoms: _230  and  _233
REMARK   95  A    between atoms: _233  and  _234
REMARK   96  A    between atoms: _239  and  _241
REMARK   97  A    between atoms: _241  and  _242
REMARK   98  A    between atoms: _241  and  _244
REMARK   99  A    between atoms: _244  and  _245
REMARK  100  A    between atoms: _251  and  _253
REMARK  101  A    between atoms: _253  and  _254
REMARK  102  A    between atoms: _253  and  _256
REMARK  103  A    between atoms: _256  and  _257
REMARK  104  A    between atoms: _262  and  _264
REMARK  105  A    between atoms: _264  and  _265
REMARK  106  A    between atoms: _267  and  _269
REMARK  107  A    between atoms: _269  and  _270
REMARK  108  A    between atoms: _269  and  _272
REMARK  109  A    between atoms: _272  and  _273
REMARK  110  A    between atoms: _278  and  _279
REMARK  111  A    between atoms: _281  and  _283
REMARK  112  A    between atoms: _283  and  _284
REMARK  113  A    between atoms: _283  and  _286
REMARK  114  A    between atoms: _286  and  _287
REMARK  115  A    between atoms: _287  and  _288
REMARK  116  A    between atoms: _288  and  _289
REMARK  117  A    between atoms: _289  and  _290
REMARK  118  A    between atoms: _294  and  _296
REMARK  119  A    between atoms: _296  and  _297
REMARK  120  A    between atoms: _300  and  _302
REMARK  121  A    between atoms: _302  and  _303
REMARK  122  A    between atoms: _302  and  _305
REMARK  123  A    between atoms: _305  and  _306
REMARK  124  A    between atoms: _306  and  _307
REMARK  125  A    between atoms: _307  and  _308
REMARK  126  A    between atoms: _308  and  _309
REMARK  127  A    between atoms: _313  and  _315
REMARK  128  A    between atoms: _315  and  _316
REMARK  129  A    between atoms: _318  and  _320
REMARK  130  A    between atoms: _320  and  _321
REMARK  131  A    between atoms: _320  and  _323
REMARK  132  A    between atoms: _323  and  _324
REMARK  133  A    between atoms: _324  and  _325
REMARK  134  A    between atoms: _325  and  _326
REMARK  135  A    between atoms: _335  and  _337
REMARK  136  A    between atoms: _337  and  _338
REMARK  137  A    between atoms: _337  and  _340
REMARK  138  A    between atoms: _340  and  _341
REMARK  139  A    between atoms: _341  and  _342
REMARK  140  A    between atoms: _342  and  _343
REMARK  141  A    between atoms: _343  and  _344
REMARK  142  A    between atoms: _348  and  _350
REMARK  143  A    between atoms: _350  and  _351
REMARK  144  A    between atoms: _350  and  _353
REMARK  145  A    between atoms: _353  and  _354
REMARK  146  A    between atoms: _354  and  _355
REMARK                            x       y       z     vdW  Elec       q    Type
REMARK                         _______ _______ _______ _____ _____    ______ ____
ROOT
ATOM      1  CG  LYS A   1     -16.616  13.132  51.360  0.00  0.00    -0.000 C 
ENDROOT
BRANCH   1   2
ATOM      2  CB  LYS A   1     -16.117  13.318  52.808  0.00  0.00    +0.025 C 
BRANCH   2   3
ATOM      3  CA  LYS A   1     -15.586  14.712  53.151  0.00  0.00    +0.133 C 
BRANCH   3   4
ATOM      4  N   LYS A   1     -14.281  14.894  52.550  0.00  0.00    -0.239 NA
ATOM      5  H   LYS A   1     -13.696  14.066  52.317  0.00  0.00    +0.142 HD
ENDBRANCH   3   4
BRANCH   3   6
ATOM      6  C   LYS A   1     -15.350  14.915  54.646  0.00  0.00    +0.224 C 
ATOM      7  O   LYS A   1     -16.286  15.041  55.434  0.00  0.00    -0.287 OA
ENDBRANCH   3   6
ENDBRANCH   2   3
ENDBRANCH   1   2
BRANCH   1   8
ATOM      8  CD  LYS A   1     -17.829  12.200  51.282  0.00  0.00    -0.024 C 
BRANCH   8   9
ATOM      9  CE  LYS A   1     -17.770  11.412  49.996  0.00  0.00    -0.086 C 
BRANCH   9  10
ATOM     10  NZ  LYS A   1     -18.820  10.349  49.861  0.00  0.00    +0.380 N 
ATOM     11  HZ1 LYS A   1     -18.720   9.665  50.638  0.00  0.00    -0.089 HD
ATOM     12  HZ2 LYS A   1     -19.762  10.787  49.902  0.00  0.00    -0.089 HD
ATOM     13  HZ3 LYS A   1     -18.703   9.861  48.950  0.00  0.00    -0.089 HD
ENDBRANCH   9  10
ENDBRANCH   8   9
ENDBRANCH   1   8
TORSDOF 7
REMARK  Name = ../refined-set-2016/3k5i/3k5i_pocket.pdb
REMARK  146 active torsions:
REMARK  status: ('A' for Active; 'I' for Inactive)
REMARK    1  A    between atoms: _1  and  _3
REMARK    2  A    between atoms: _3  and  _4
REMARK    3  A    between atoms: _3  and  _6
REMARK    4  A    between atoms: _6  and  _7
REMARK    5  A    between atoms: _10  and  _12
REMARK    6  A    between atoms: _12  and  _13
REMARK    7  A    between atoms: _15  and  _17
REMARK    8  A    between atoms: _17  and  _18
REMARK    9  A    between atoms: _20  and  _22
REMARK   10  A    between atoms: _22  and  _23
REMARK   11  A    between atoms: _25  and  _27
REMARK   12  A    between atoms: _27  and  _28
REMARK   13  A    between atoms: _27  and  _30
REMARK   14  A    between atoms: _30  and  _31
REMARK   15  A    between atoms: _31  and  _32
REMARK   16  A    between atoms: _37  and  _39
REMARK   17  A    between atoms: _39  and  _40
REMARK   18  A    between atoms: _39  and  _42
REMARK   19  A    between atoms: _42  and  _43
REMARK   20  A    between atoms: _46  and  _48
REMARK   21  A    between atoms: _48  and  _49
REMARK   22  A    between atoms: _51  and  _53
REMARK   23  A    between atoms: _53  and  _54
REMARK   24  A    between atoms: _53  and  _56
REMARK   25  A    between atoms: _56  and  _57
REMARK   26  A    between atoms: _57  and  _58
REMARK   27  A    between atoms: _58  and  _59
REMARK   28  A    between atoms: _68  and  _70
REMARK   29  A    between atoms: _70  and  _71
REMARK   30  A    between atoms: _70  and  _73
REMARK   31  A    between atoms: _73  and  _74
REMARK   32  A    between atoms: _74  and  _75
REMARK   33  A    between atoms: _77  and  _79
REMARK   34  A    between atoms: _79  and  _80
REMARK   35  A    between atoms: _79  and  _82
REMARK   36  A    between atoms: _82  and  _83
REMARK   37  A    between atoms: _86  and  _88
REMARK   38  A    between atoms: _88  and  _89
REMARK   39  A    between atoms: _88  and  _91
REMARK   40  A    between atoms: _91  and  _92
REMARK   41  A    between atoms: _95  and  _97
REMARK   42  A    between atoms: _97  and  _98
REMARK   43  A    between atoms: _97  and  _100
REMARK   44  A    between atoms: _100  and  _101
REMARK   45  A    between atoms: _104  and  _105
REMARK   46  A    between atoms: _110  and  _112
REMARK   47  A    between atoms: _112  and  _113
REMARK   48  A    between atoms: _116  and  _118
REMARK   49  A    between atoms: _118  and  _119
REMARK   50  A    between atoms: _118  and  _121
REMARK   51  A    between atoms: _121  and  _122
REMARK   52  A    between atoms: _128  and  _130
REMARK   53  A    between atoms: _130  and  _131
REMARK   54  A    between atoms: _134  and  _136
REMARK   55  A    between atoms: _136  and  _137
REMARK   56  A    between atoms: _136  and  _139
REMARK   57  A    between atoms: _139  and  _140
REMARK   58  A    between atoms: _140  and  _141
REMARK   59  A    between atoms: _144  and  _146
REMARK   60  A    between atoms: _146  and  _147
REMARK   61  A    between atoms: _146  and  _149
REMARK   62  A    between atoms: _149  and  _150
REMARK   63  A    between atoms: _153  and  _155
REMARK   64  A    between atoms: _155  and  _156
REMARK   65  A    between atoms: _155  and  _158
REMARK   66  A    between atoms: _158  and  _159
REMARK   67  A    between atoms: _159  and  _160
REMARK   68  A    between atoms: _163  and  _165
REMARK   69  A    between atoms: _165  and  _166
REMARK   70  A    between atoms: _165  and  _168
REMARK   71  A    between atoms: _168  and  _169
REMARK   72  A    between atoms: _174  and  _176
REMARK   73  A    between atoms: _176  and  _177
REMARK   74  A    between atoms: _180  and  _182
REMARK   75  A    between atoms: _182  and  _183
REMARK   76  A    between atoms: _182  and  _185
REMARK   77  A    between atoms: _185  and  _186
REMARK   78  A    between atoms: _186  and  _187
REMARK   79  A    between atoms: _187  and  _188
REMARK   80  A    between atoms: _197  and  _199
REMARK   81  A    between atoms: _199  and  _200
REMARK   82  A    between atoms: _199  and  _202
REMARK   83  A    between atoms: _202  and  _203
REMARK   84  A    between atoms: _206  and  _208
REMARK   85  A    between atoms: _208  and  _209
REMARK   86  A    between atoms: _208  and  _211
REMARK   87  A    between atoms: _211  and  _212
REMARK   88  A    between atoms: _217  and  _219
REMARK   89  A    between atoms: _219  and  _220
REMARK   90  A    between atoms: _219  and  _222
REMARK   91  A    between atoms: _222  and  _223
REMARK   92  A    between atoms: _228  and  _230
REMARK   93  A    between atoms: _230  and  _231
REMARK   94  A    between atoms: _230  and  _233
REMARK   95  A    between atoms: _233  and  _234
REMARK   96  A    between atoms: _239  and  _241
REMARK   97  A    between atoms: _241  and  _242
REMARK   98  A    between atoms: _241  and  _244
REMARK   99  A    between atoms: _244  and  _245
REMARK  100  A    between atoms: _251  and  _253
REMARK  101  A    between atoms: _253  and  _254
REMARK  102  A    between atoms: _253  and  _256
REMARK  103  A    between atoms: _256  and  _257
REMARK  104  A    between atoms: _262  and  _264
REMARK  105  A    between atoms: _264  and  _265
REMARK  106  A    between atoms: _267  and  _269
REMARK  107  A    between atoms: _269  and  _270
REMARK  108  A    between atoms: _269  and  _272
REMARK  109  A    between atoms: _272  and  _273
REMARK  110  A    between atoms: _278  and  _279
REMARK  111  A    between atoms: _281  and  _283
REMARK  112  A    between atoms: _283  and  _284
REMARK  113  A    between atoms: _283  and  _286
REMARK  114  A    between atoms: _286  and  _287
REMARK  115  A    between atoms: _287  and  _288
REMARK  116  A    between atoms: _288  and  _289
REMARK  117  A    between atoms: _289  and  _290
REMARK  118  A    between atoms: _294  and  _296
REMARK  119  A    between atoms: _296  and  _297
REMARK  120  A    between atoms: _300  and  _302
REMARK  121  A    between atoms: _302  and  _303
REMARK  122  A    between atoms: _302  and  _305
REMARK  123  A    between atoms: _305  and  _306
REMARK  124  A    between atoms: _306  and  _307
REMARK  125  A    between atoms: _307  and  _308
REMARK  126  A    between atoms: _308  and  _309
REMARK  127  A    between atoms: _313  and  _315
REMARK  128  A    between atoms: _315  and  _316
REMARK  129  A    between atoms: _318  and  _320
REMARK  130  A    between atoms: _320  and  _321
REMARK  131  A    between atoms: _320  and  _323
REMARK  132  A    between atoms: _323  and  _324
REMARK  133  A    between atoms: _324  and  _325
REMARK  134  A    between atoms: _325  and  _326
REMARK  135  A    between atoms: _335  and  _337
REMARK  136  A    between atoms: _337  and  _338
REMARK  137  A    between atoms: _337  and  _340
REMARK  138  A    between atoms: _340  and  _341
REMARK  139  A    between atoms: _341  and  _342
REMARK  140  A    between atoms: _342  and  _343
REMARK  141  A    between atoms: _343  and  _344
REMARK  142  A    between atoms: _348  and  _350
REMARK  143  A    between atoms: _350  and  _351
REMARK  144  A    between atoms: _350  and  _353
REMARK  145  A    between atoms: _353  and  _354
REMARK  146  A    between atoms: _354  and  _355
REMARK                            x       y       z     vdW  Elec       q    Type
REMARK                         _______ _______ _______ _____ _____    ______ ____
ROOT
ATOM      1  CA  ALA A   1     -15.719  13.104  58.974  0.00  0.00    +0.133 C 
ATOM      2  CB  ALA A   1     -16.923  13.825  59.561  0.00  0.00    +0.027 C 
ENDROOT
BRANCH   1   3
ATOM      3  N   ALA A   1     -15.092  14.010  57.993  0.00  0.00    -0.239 NA
ATOM      4  H   ALA A   1     -15.647  14.868  57.799  0.00  0.00    +0.142 HD
ENDBRANCH   1   3
BRANCH   1   5
ATOM      5  C   ALA A   1     -16.118  11.646  58.696  0.00  0.00    +0.224 C 
ATOM      6  O   ALA A   1     -17.267  11.375  58.285  0.00  0.00    -0.287 OA
ENDBRANCH   1   5
TORSDOF 2
REMARK  Name = ../refined-set-2016/3k5i/3k5i_pocket.pdb
REMARK  146 active torsions:
REMARK  status: ('A' for Active; 'I' for Inactive)
REMARK    1  A    between atoms: _1  and  _3
REMARK    2  A    between atoms: _3  and  _4
REMARK    3  A    between atoms: _3  and  _6
REMARK    4  A    between atoms: _6  and  _7
REMARK    5  A    between atoms: _10  and  _12
REMARK    6  A    between atoms: _12  and  _13
REMARK    7  A    between atoms: _15  and  _17
REMARK    8  A    between atoms: _17  and  _18
REMARK    9  A    between atoms: _20  and  _22
REMARK   10  A    between atoms: _22  and  _23
REMARK   11  A    between atoms: _25  and  _27
REMARK   12  A    between atoms: _27  and  _28
REMARK   13  A    between atoms: _27  and  _30
REMARK   14  A    between atoms: _30  and  _31
REMARK   15  A    between atoms: _31  and  _32
REMARK   16  A    between atoms: _37  and  _39
REMARK   17  A    between atoms: _39  and  _40
REMARK   18  A    between atoms: _39  and  _42
REMARK   19  A    between atoms: _42  and  _43
REMARK   20  A    between atoms: _46  and  _48
REMARK   21  A    between atoms: _48  and  _49
REMARK   22  A    between atoms: _51  and  _53
REMARK   23  A    between atoms: _53  and  _54
REMARK   24  A    between atoms: _53  and  _56
REMARK   25  A    between atoms: _56  and  _57
REMARK   26  A    between atoms: _57  and  _58
REMARK   27  A    between atoms: _58  and  _59
REMARK   28  A    between atoms: _68  and  _70
REMARK   29  A    between atoms: _70  and  _71
REMARK   30  A    between atoms: _70  and  _73
REMARK   31  A    between atoms: _73  and  _74
REMARK   32  A    between atoms: _74  and  _75
REMARK   33  A    between atoms: _77  and  _79
REMARK   34  A    between atoms: _79  and  _80
REMARK   35  A    between atoms: _79  and  _82
REMARK   36  A    between atoms: _82  and  _83
REMARK   37  A    between atoms: _86  and  _88
REMARK   38  A    between atoms: _88  and  _89
REMARK   39  A    between atoms: _88  and  _91
REMARK   40  A    between atoms: _91  and  _92
REMARK   41  A    between atoms: _95  and  _97
REMARK   42  A    between atoms: _97  and  _98
REMARK   43  A    between atoms: _97  and  _100
REMARK   44  A    between atoms: _100  and  _101
REMARK   45  A    between atoms: _104  and  _105
REMARK   46  A    between atoms: _110  and  _112
REMARK   47  A    between atoms: _112  and  _113
REMARK   48  A    between atoms: _116  and  _118
REMARK   49  A    between atoms: _118  and  _119
REMARK   50  A    between atoms: _118  and  _121
REMARK   51  A    between atoms: _121  and  _122
REMARK   52  A    between atoms: _128  and  _130
REMARK   53  A    between atoms: _130  and  _131
REMARK   54  A    between atoms: _134  and  _136
REMARK   55  A    between atoms: _136  and  _137
REMARK   56  A    between atoms: _136  and  _139
REMARK   57  A    between atoms: _139  and  _140
REMARK   58  A    between atoms: _140  and  _141
REMARK   59  A    between atoms: _144  and  _146
REMARK   60  A    between atoms: _146  and  _147
REMARK   61  A    between atoms: _146  and  _149
REMARK   62  A    between atoms: _149  and  _150
REMARK   63  A    between atoms: _153  and  _155
REMARK   64  A    between atoms: _155  and  _156
REMARK   65  A    between atoms: _155  and  _158
REMARK   66  A    between atoms: _158  and  _159
REMARK   67  A    between atoms: _159  and  _160
REMARK   68  A    between atoms: _163  and  _165
REMARK   69  A    between atoms: _165  and  _166
REMARK   70  A    between atoms: _165  and  _168
REMARK   71  A    between atoms: _168  and  _169
REMARK   72  A    between atoms: _174  and  _176
REMARK   73  A    between atoms: _176  and  _177
REMARK   74  A    between atoms: _180  and  _182
REMARK   75  A    between atoms: _182  and  _183
REMARK   76  A    between atoms: _182  and  _185
REMARK   77  A    between atoms: _185  and  _186
REMARK   78  A    between atoms: _186  and  _187
REMARK   79  A    between atoms: _187  and  _188
REMARK   80  A    between atoms: _197  and  _199
REMARK   81  A    between atoms: _199  and  _200
REMARK   82  A    between atoms: _199  and  _202
REMARK   83  A    between atoms: _202  and  _203
REMARK   84  A    between atoms: _206  and  _208
REMARK   85  A    between atoms: _208  and  _209
REMARK   86  A    between atoms: _208  and  _211
REMARK   87  A    between atoms: _211  and  _212
REMARK   88  A    between atoms: _217  and  _219
REMARK   89  A    between atoms: _219  and  _220
REMARK   90  A    between atoms: _219  and  _222
REMARK   91  A    between atoms: _222  and  _223
REMARK   92  A    between atoms: _228  and  _230
REMARK   93  A    between atoms: _230  and  _231
REMARK   94  A    between atoms: _230  and  _233
REMARK   95  A    between atoms: _233  and  _234
REMARK   96  A    between atoms: _239  and  _241
REMARK   97  A    between atoms: _241  and  _242
REMARK   98  A    between atoms: _241  and  _244
REMARK   99  A    between atoms: _244  and  _245
REMARK  100  A    between atoms: _251  and  _253
REMARK  101  A    between atoms: _253  and  _254
REMARK  102  A    between atoms: _253  and  _256
REMARK  103  A    between atoms: _256  and  _257
REMARK  104  A    between atoms: _262  and  _264
REMARK  105  A    between atoms: _264  and  _265
REMARK  106  A    between atoms: _267  and  _269
REMARK  107  A    between atoms: _269  and  _270
REMARK  108  A    between atoms: _269  and  _272
REMARK  109  A    between atoms: _272  and  _273
REMARK  110  A    between atoms: _278  and  _279
REMARK  111  A    between atoms: _281  and  _283
REMARK  112  A    between atoms: _283  and  _284
REMARK  113  A    between atoms: _283  and  _286
REMARK  114  A    between atoms: _286  and  _287
REMARK  115  A    between atoms: _287  and  _288
REMARK  116  A    between atoms: _288  and  _289
REMARK  117  A    between atoms: _289  and  _290
REMARK  118  A    between atoms: _294  and  _296
REMARK  119  A    between atoms: _296  and  _297
REMARK  120  A    between atoms: _300  and  _302
REMARK  121  A    between atoms: _302  and  _303
REMARK  122  A    between atoms: _302  and  _305
REMARK  123  A    between atoms: _305  and  _306
REMARK  124  A    between atoms: _306  and  _307
REMARK  125  A    between atoms: _307  and  _308
REMARK  126  A    between atoms: _308  and  _309
REMARK  127  A    between atoms: _313  and  _315
REMARK  128  A    between atoms: _315  and  _316
REMARK  129  A    between atoms: _318  and  _320
REMARK  130  A    between atoms: _320  and  _321
REMARK  131  A    between atoms: _320  and  _323
REMARK  132  A    between atoms: _323  and  _324
REMARK  133  A    between atoms: _324  and  _325
REMARK  134  A    between atoms: _325  and  _326
REMARK  135  A    between atoms: _335  and  _337
REMARK  136  A    between atoms: _337  and  _338
REMARK  137  A    between atoms: _337  and  _340
REMARK  138  A    between atoms: _340  and  _341
REMARK  139  A    between atoms: _341  and  _342
REMARK  140  A    between atoms: _342  and  _343
REMARK  141  A    between atoms: _343  and  _344
REMARK  142  A    between atoms: _348  and  _350
REMARK  143  A    between atoms: _350  and  _351
REMARK  144  A    between atoms: _350  and  _353
REMARK  145  A    between atoms: _353  and  _354
REMARK  146  A    between atoms: _354  and  _355
REMARK                            x       y       z     vdW  Elec       q    Type
REMARK                         _______ _______ _______ _____ _____    ______ ____
ROOT
ATOM      1  CG  LYS A   1     -20.040   9.343  59.923  0.00  0.00    -0.000 C 
ENDROOT
BRANCH   1   2
ATOM      2  CB  LYS A   1     -19.823   8.021  59.193  0.00  0.00    +0.025 C 
BRANCH   2   3
ATOM      3  CA  LYS A   1     -18.484   7.361  59.486  0.00  0.00    +0.133 C 
BRANCH   3   4
ATOM      4  N   LYS A   1     -17.394   8.076  58.859  0.00  0.00    -0.239 NA
ATOM      5  H   LYS A   1     -17.375   8.171  57.824  0.00  0.00    +0.142 HD
ENDBRANCH   3   4
BRANCH   3   6
ATOM      6  C   LYS A   1     -18.395   5.954  58.921  0.00  0.00    +0.224 C 
ATOM      7  O   LYS A   1     -17.711   5.696  57.924  0.00  0.00    -0.287 OA
ENDBRANCH   3   6
ENDBRANCH   2   3
ENDBRANCH   1   2
BRANCH   1   8
ATOM      8  CD  LYS A   1     -21.413   9.364  60.592  0.00  0.00    -0.024 C 
BRANCH   8   9
ATOM      9  CE  LYS A   1     -22.436  10.216  59.828  0.00  0.00    -0.086 C 
BRANCH   9  10
ATOM     10  NZ  LYS A   1     -23.760  10.393  60.526  0.00  0.00    +0.380 N 
ATOM     11  HZ1 LYS A   1     -23.607  10.859  61.443  0.00  0.00    -0.089 HD
ATOM     12  HZ2 LYS A   1     -24.198   9.462  60.677  0.00  0.00    -0.089 HD
ATOM     13  HZ3 LYS A   1     -24.385  10.980  59.938  0.00  0.00    -0.089 HD
ENDBRANCH   9  10
ENDBRANCH   8   9
ENDBRANCH   1   8
TORSDOF 7
REMARK  Name = ../refined-set-2016/3k5i/3k5i_pocket.pdb
REMARK  146 active torsions:
REMARK  status: ('A' for Active; 'I' for Inactive)
REMARK    1  A    between atoms: _1  and  _3
REMARK    2  A    between atoms: _3  and  _4
REMARK    3  A    between atoms: _3  and  _6
REMARK    4  A    between atoms: _6  and  _7
REMARK    5  A    between atoms: _10  and  _12
REMARK    6  A    between atoms: _12  and  _13
REMARK    7  A    between atoms: _15  and  _17
REMARK    8  A    between atoms: _17  and  _18
REMARK    9  A    between atoms: _20  and  _22
REMARK   10  A    between atoms: _22  and  _23
REMARK   11  A    between atoms: _25  and  _27
REMARK   12  A    between atoms: _27  and  _28
REMARK   13  A    between atoms: _27  and  _30
REMARK   14  A    between atoms: _30  and  _31
REMARK   15  A    between atoms: _31  and  _32
REMARK   16  A    between atoms: _37  and  _39
REMARK   17  A    between atoms: _39  and  _40
REMARK   18  A    between atoms: _39  and  _42
REMARK   19  A    between atoms: _42  and  _43
REMARK   20  A    between atoms: _46  and  _48
REMARK   21  A    between atoms: _48  and  _49
REMARK   22  A    between atoms: _51  and  _53
REMARK   23  A    between atoms: _53  and  _54
REMARK   24  A    between atoms: _53  and  _56
REMARK   25  A    between atoms: _56  and  _57
REMARK   26  A    between atoms: _57  and  _58
REMARK   27  A    between atoms: _58  and  _59
REMARK   28  A    between atoms: _68  and  _70
REMARK   29  A    between atoms: _70  and  _71
REMARK   30  A    between atoms: _70  and  _73
REMARK   31  A    between atoms: _73  and  _74
REMARK   32  A    between atoms: _74  and  _75
REMARK   33  A    between atoms: _77  and  _79
REMARK   34  A    between atoms: _79  and  _80
REMARK   35  A    between atoms: _79  and  _82
REMARK   36  A    between atoms: _82  and  _83
REMARK   37  A    between atoms: _86  and  _88
REMARK   38  A    between atoms: _88  and  _89
REMARK   39  A    between atoms: _88  and  _91
REMARK   40  A    between atoms: _91  and  _92
REMARK   41  A    between atoms: _95  and  _97
REMARK   42  A    between atoms: _97  and  _98
REMARK   43  A    between atoms: _97  and  _100
REMARK   44  A    between atoms: _100  and  _101
REMARK   45  A    between atoms: _104  and  _105
REMARK   46  A    between atoms: _110  and  _112
REMARK   47  A    between atoms: _112  and  _113
REMARK   48  A    between atoms: _116  and  _118
REMARK   49  A    between atoms: _118  and  _119
REMARK   50  A    between atoms: _118  and  _121
REMARK   51  A    between atoms: _121  and  _122
REMARK   52  A    between atoms: _128  and  _130
REMARK   53  A    between atoms: _130  and  _131
REMARK   54  A    between atoms: _134  and  _136
REMARK   55  A    between atoms: _136  and  _137
REMARK   56  A    between atoms: _136  and  _139
REMARK   57  A    between atoms: _139  and  _140
REMARK   58  A    between atoms: _140  and  _141
REMARK   59  A    between atoms: _144  and  _146
REMARK   60  A    between atoms: _146  and  _147
REMARK   61  A    between atoms: _146  and  _149
REMARK   62  A    between atoms: _149  and  _150
REMARK   63  A    between atoms: _153  and  _155
REMARK   64  A    between atoms: _155  and  _156
REMARK   65  A    between atoms: _155  and  _158
REMARK   66  A    between atoms: _158  and  _159
REMARK   67  A    between atoms: _159  and  _160
REMARK   68  A    between atoms: _163  and  _165
REMARK   69  A    between atoms: _165  and  _166
REMARK   70  A    between atoms: _165  and  _168
REMARK   71  A    between atoms: _168  and  _169
REMARK   72  A    between atoms: _174  and  _176
REMARK   73  A    between atoms: _176  and  _177
REMARK   74  A    between atoms: _180  and  _182
REMARK   75  A    between atoms: _182  and  _183
REMARK   76  A    between atoms: _182  and  _185
REMARK   77  A    between atoms: _185  and  _186
REMARK   78  A    between atoms: _186  and  _187
REMARK   79  A    between atoms: _187  and  _188
REMARK   80  A    between atoms: _197  and  _199
REMARK   81  A    between atoms: _199  and  _200
REMARK   82  A    between atoms: _199  and  _202
REMARK   83  A    between atoms: _202  and  _203
REMARK   84  A    between atoms: _206  and  _208
REMARK   85  A    between atoms: _208  and  _209
REMARK   86  A    between atoms: _208  and  _211
REMARK   87  A    between atoms: _211  and  _212
REMARK   88  A    between atoms: _217  and  _219
REMARK   89  A    between atoms: _219  and  _220
REMARK   90  A    between atoms: _219  and  _222
REMARK   91  A    between atoms: _222  and  _223
REMARK   92  A    between atoms: _228  and  _230
REMARK   93  A    between atoms: _230  and  _231
REMARK   94  A    between atoms: _230  and  _233
REMARK   95  A    between atoms: _233  and  _234
REMARK   96  A    between atoms: _239  and  _241
REMARK   97  A    between atoms: _241  and  _242
REMARK   98  A    between atoms: _241  and  _244
REMARK   99  A    between atoms: _244  and  _245
REMARK  100  A    between atoms: _251  and  _253
REMARK  101  A    between atoms: _253  and  _254
REMARK  102  A    between atoms: _253  and  _256
REMARK  103  A    between atoms: _256  and  _257
REMARK  104  A    between atoms: _262  and  _264
REMARK  105  A    between atoms: _264  and  _265
REMARK  106  A    between atoms: _267  and  _269
REMARK  107  A    between atoms: _269  and  _270
REMARK  108  A    between atoms: _269  and  _272
REMARK  109  A    between atoms: _272  and  _273
REMARK  110  A    between atoms: _278  and  _279
REMARK  111  A    between atoms: _281  and  _283
REMARK  112  A    between atoms: _283  and  _284
REMARK  113  A    between atoms: _283  and  _286
REMARK  114  A    between atoms: _286  and  _287
REMARK  115  A    between atoms: _287  and  _288
REMARK  116  A    between atoms: _288  and  _289
REMARK  117  A    between atoms: _289  and  _290
REMARK  118  A    between atoms: _294  and  _296
REMARK  119  A    between atoms: _296  and  _297
REMARK  120  A    between atoms: _300  and  _302
REMARK  121  A    between atoms: _302  and  _303
REMARK  122  A    between atoms: _302  and  _305
REMARK  123  A    between atoms: _305  and  _306
REMARK  124  A    between atoms: _306  and  _307
REMARK  125  A    between atoms: _307  and  _308
REMARK  126  A    between atoms: _308  and  _309
REMARK  127  A    between atoms: _313  and  _315
REMARK  128  A    between atoms: _315  and  _316
REMARK  129  A    between atoms: _318  and  _320
REMARK  130  A    between atoms: _320  and  _321
REMARK  131  A    between atoms: _320  and  _323
REMARK  132  A    between atoms: _323  and  _324
REMARK  133  A    between atoms: _324  and  _325
REMARK  134  A    between atoms: _325  and  _326
REMARK  135  A    between atoms: _335  and  _337
REMARK  136  A    between atoms: _337  and  _338
REMARK  137  A    between atoms: _337  and  _340
REMARK  138  A    between atoms: _340  and  _341
REMARK  139  A    between atoms: _341  and  _342
REMARK  140  A    between atoms: _342  and  _343
REMARK  141  A    between atoms: _343  and  _344
REMARK  142  A    between atoms: _348  and  _350
REMARK  143  A    between atoms: _350  and  _351
REMARK  144  A    between atoms: _350  and  _353
REMARK  145  A    between atoms: _353  and  _354
REMARK  146  A    between atoms: _354  and  _355
REMARK                            x       y       z     vdW  Elec       q    Type
REMARK                         _______ _______ _______ _____ _____    ______ ____
ROOT
ATOM      1  C   ARG A   2     -17.562   5.999  53.244  0.00  0.00    +0.241 C 
ATOM      2  O   ARG A   2     -16.428   5.782  53.692  0.00  0.00    -0.273 OA
ATOM      3  N   LYS A   3     -17.843   6.303  51.988  0.00  0.00    -0.297 N 
ATOM      4  H   LYS A   3     -18.834   6.504  51.746  0.00  0.00    +0.150 HD
ENDROOT
BRANCH   3   5
ATOM      5  CA  LYS A   3     -16.840   6.375  50.906  0.00  0.00    +0.149 C 
BRANCH   5   6
ATOM      6  C   LYS A   3     -15.965   7.625  51.122  0.00  0.00    +0.241 C 
ATOM      7  N   MET A   4     -14.750   7.425  51.650  0.00  0.00    -0.298 N 
ATOM      8  H   MET A   4     -14.445   6.452  51.857  0.00  0.00    +0.150 HD
ATOM      9  O   LYS A   3     -16.393   8.750  50.812  0.00  0.00    -0.273 OA
BRANCH   7  10
ATOM     10  CA  MET A   4     -13.838   8.531  51.945  0.00  0.00    +0.138 C 
BRANCH  10  11
ATOM     11  C   MET A   4     -12.803   9.004  50.926  0.00  0.00    +0.227 C 
ATOM     12  O   MET A   4     -12.267  10.134  50.978  0.00  0.00    -0.286 OA
ENDBRANCH  10  11
BRANCH  10  13
ATOM     13  CB  MET A   4     -13.157   8.252  53.287  0.00  0.00    +0.039 C 
BRANCH  13  14
ATOM     14  CG  MET A   4     -14.135   8.125  54.468  0.00  0.00    +0.060 C 
BRANCH  14  15
ATOM     15  SD  MET A   4     -15.440   9.408  54.647  0.00  0.00    -0.139 S 
ATOM     16  CE  MET A   4     -14.585  10.784  55.638  0.00  0.00    +0.069 C 
ENDBRANCH  14  15
ENDBRANCH  13  14
ENDBRANCH  10  13
ENDBRANCH   7  10
ENDBRANCH   5   6
BRANCH   5  17
ATOM     17  CB  LYS A   3     -17.572   6.387  49.549  0.00  0.00    +0.029 C 
BRANCH  17  18
ATOM     18  CG  LYS A   3     -17.672   4.998  48.859  0.00  0.00    +0.000 C 
BRANCH  18  19
ATOM     19  CD  LYS A   3     -18.533   4.998  47.590  0.00  0.00    -0.024 C 
BRANCH  19  20
ATOM     20  CE  LYS A   3     -19.331   3.690  47.341  0.00  0.00    -0.086 C 
BRANCH  20  21
ATOM     21  NZ  LYS A   3     -20.611   3.961  46.553  0.00  0.00    +0.380 N 
ATOM     22  HZ1 LYS A   3     -21.213   4.619  47.088  0.00  0.00    -0.089 HD
ATOM     23  HZ2 LYS A   3     -21.121   3.067  46.404  0.00  0.00    -0.089 HD
ATOM     24  HZ3 LYS A   3     -20.368   4.381  45.633  0.00  0.00    -0.089 HD
ENDBRANCH  20  21
ENDBRANCH  19  20
ENDBRANCH  18  19
ENDBRANCH  17  18
ENDBRANCH   5  17
ENDBRANCH   3   5
BRANCH   1  25
ATOM     25  CA  ARG A   2     -18.795   5.991  54.119  0.00  0.00    +0.149 C 
BRANCH  25  27
ATOM     26  C   GLY A   1     -18.905   3.596  54.523  0.00  0.00    +0.240 C 
ATOM     27  N   ARG A   2     -18.828   4.823  55.019  0.00  0.00    -0.297 N 
ATOM     28  H   ARG A   2     -18.791   4.963  56.049  0.00  0.00    +0.150 HD
ATOM     29  O   GLY A   1     -18.974   3.395  53.321  0.00  0.00    -0.274 OA
BRANCH  26  30
ATOM     30  CA  GLY A   1     -18.925   2.423  55.515  0.00  0.00    +0.169 C 
BRANCH  30  31
ATOM     31  N   GLY A   1     -18.621   2.864  56.874  0.00  0.00    -0.236 NA
ATOM     32  H   GLY A   1     -17.625   2.856  57.174  0.00  0.00    +0.142 HD
ENDBRANCH  30  31
ENDBRANCH  26  30
ENDBRANCH  25  27
BRANCH  25  33
ATOM     33  CB  ARG A   2     -18.737   7.309  54.866  0.00  0.00    +0.033 C 
BRANCH  33  34
ATOM     34  CG  ARG A   2     -18.963   8.533  53.978  0.00  0.00    +0.045 C 
BRANCH  34  35
ATOM     35  CD  ARG A   2     -19.543   9.638  54.851  0.00  0.00    +0.174 C 
BRANCH  35  36
ATOM     36  NE  ARG A   2     -19.968  10.807  54.096  0.00  0.00    -0.265 N 
ATOM     37  CZ  ARG A   2     -19.777  12.087  54.396  0.00  0.00    +0.342 C 
ATOM     38  NH2 ARG A   2     -19.140  12.570  55.462  0.00  0.00    -0.292 N 
ATOM     39 HH21 ARG A   2     -18.731  11.919  56.163  0.00  0.00    +0.255 HD
ATOM     40 HH22 ARG A   2     -19.052  13.598  55.593  0.00  0.00    +0.255 HD
ATOM     41  NH1 ARG A   2     -20.267  12.922  53.514  0.00  0.00    -0.292 N 
ATOM     42 HH11 ARG A   2     -20.169  13.947  53.658  0.00  0.00    +0.255 HD
ATOM     43 HH12 ARG A   2     -20.754  12.560  52.670  0.00  0.00    +0.255 HD
ATOM     44  HE  ARG A   2     -20.485  10.617  53.213  0.00  0.00    +0.259 HD
ENDBRANCH  35  36
ENDBRANCH  34  35
ENDBRANCH  33  34
ENDBRANCH  25  33
ENDBRANCH   1  25
TORSDOF 20
REMARK  Name = ../refined-set-2016/3k5i/3k5i_pocket.pdb
REMARK  146 active torsions:
REMARK  status: ('A' for Active; 'I' for Inactive)
REMARK    1  A    between atoms: _1  and  _3
REMARK    2  A    between atoms: _3  and  _4
REMARK    3  A    between atoms: _3  and  _6
REMARK    4  A    between atoms: _6  and  _7
REMARK    5  A    between atoms: _10  and  _12
REMARK    6  A    between atoms: _12  and  _13
REMARK    7  A    between atoms: _15  and  _17
REMARK    8  A    between atoms: _17  and  _18
REMARK    9  A    between atoms: _20  and  _22
REMARK   10  A    between atoms: _22  and  _23
REMARK   11  A    between atoms: _25  and  _27
REMARK   12  A    between atoms: _27  and  _28
REMARK   13  A    between atoms: _27  and  _30
REMARK   14  A    between atoms: _30  and  _31
REMARK   15  A    between atoms: _31  and  _32
REMARK   16  A    between atoms: _37  and  _39
REMARK   17  A    between atoms: _39  and  _40
REMARK   18  A    between atoms: _39  and  _42
REMARK   19  A    between atoms: _42  and  _43
REMARK   20  A    between atoms: _46  and  _48
REMARK   21  A    between atoms: _48  and  _49
REMARK   22  A    between atoms: _51  and  _53
REMARK   23  A    between atoms: _53  and  _54
REMARK   24  A    between atoms: _53  and  _56
REMARK   25  A    between atoms: _56  and  _57
REMARK   26  A    between atoms: _57  and  _58
REMARK   27  A    between atoms: _58  and  _59
REMARK   28  A    between atoms: _68  and  _70
REMARK   29  A    between atoms: _70  and  _71
REMARK   30  A    between atoms: _70  and  _73
REMARK   31  A    between atoms: _73  and  _74
REMARK   32  A    between atoms: _74  and  _75
REMARK   33  A    between atoms: _77  and  _79
REMARK   34  A    between atoms: _79  and  _80
REMARK   35  A    between atoms: _79  and  _82
REMARK   36  A    between atoms: _82  and  _83
REMARK   37  A    between atoms: _86  and  _88
REMARK   38  A    between atoms: _88  and  _89
REMARK   39  A    between atoms: _88  and  _91
REMARK   40  A    between atoms: _91  and  _92
REMARK   41  A    between atoms: _95  and  _97
REMARK   42  A    between atoms: _97  and  _98
REMARK   43  A    between atoms: _97  and  _100
REMARK   44  A    between atoms: _100  and  _101
REMARK   45  A    between atoms: _104  and  _105
REMARK   46  A    between atoms: _110  and  _112
REMARK   47  A    between atoms: _112  and  _113
REMARK   48  A    between atoms: _116  and  _118
REMARK   49  A    between atoms: _118  and  _119
REMARK   50  A    between atoms: _118  and  _121
REMARK   51  A    between atoms: _121  and  _122
REMARK   52  A    between atoms: _128  and  _130
REMARK   53  A    between atoms: _130  and  _131
REMARK   54  A    between atoms: _134  and  _136
REMARK   55  A    between atoms: _136  and  _137
REMARK   56  A    between atoms: _136  and  _139
REMARK   57  A    between atoms: _139  and  _140
REMARK   58  A    between atoms: _140  and  _141
REMARK   59  A    between atoms: _144  and  _146
REMARK   60  A    between atoms: _146  and  _147
REMARK   61  A    between atoms: _146  and  _149
REMARK   62  A    between atoms: _149  and  _150
REMARK   63  A    between atoms: _153  and  _155
REMARK   64  A    between atoms: _155  and  _156
REMARK   65  A    between atoms: _155  and  _158
REMARK   66  A    between atoms: _158  and  _159
REMARK   67  A    between atoms: _159  and  _160
REMARK   68  A    between atoms: _163  and  _165
REMARK   69  A    between atoms: _165  and  _166
REMARK   70  A    between atoms: _165  and  _168
REMARK   71  A    between atoms: _168  and  _169
REMARK   72  A    between atoms: _174  and  _176
REMARK   73  A    between atoms: _176  and  _177
REMARK   74  A    between atoms: _180  and  _182
REMARK   75  A    between atoms: _182  and  _183
REMARK   76  A    between atoms: _182  and  _185
REMARK   77  A    between atoms: _185  and  _186
REMARK   78  A    between atoms: _186  and  _187
REMARK   79  A    between atoms: _187  and  _188
REMARK   80  A    between atoms: _197  and  _199
REMARK   81  A    between atoms: _199  and  _200
REMARK   82  A    between atoms: _199  and  _202
REMARK   83  A    between atoms: _202  and  _203
REMARK   84  A    between atoms: _206  and  _208
REMARK   85  A    between atoms: _208  and  _209
REMARK   86  A    between atoms: _208  and  _211
REMARK   87  A    between atoms: _211  and  _212
REMARK   88  A    between atoms: _217  and  _219
REMARK   89  A    between atoms: _219  and  _220
REMARK   90  A    between atoms: _219  and  _222
REMARK   91  A    between atoms: _222  and  _223
REMARK   92  A    between atoms: _228  and  _230
REMARK   93  A    between atoms: _230  and  _231
REMARK   94  A    between atoms: _230  and  _233
REMARK   95  A    between atoms: _233  and  _234
REMARK   96  A    between atoms: _239  and  _241
REMARK   97  A    between atoms: _241  and  _242
REMARK   98  A    between atoms: _241  and  _244
REMARK   99  A    between atoms: _244  and  _245
REMARK  100  A    between atoms: _251  and  _253
REMARK  101  A    between atoms: _253  and  _254
REMARK  102  A    between atoms: _253  and  _256
REMARK  103  A    between atoms: _256  and  _257
REMARK  104  A    between atoms: _262  and  _264
REMARK  105  A    between atoms: _264  and  _265
REMARK  106  A    between atoms: _267  and  _269
REMARK  107  A    between atoms: _269  and  _270
REMARK  108  A    between atoms: _269  and  _272
REMARK  109  A    between atoms: _272  and  _273
REMARK  110  A    between atoms: _278  and  _279
REMARK  111  A    between atoms: _281  and  _283
REMARK  112  A    between atoms: _283  and  _284
REMARK  113  A    between atoms: _283  and  _286
REMARK  114  A    between atoms: _286  and  _287
REMARK  115  A    between atoms: _287  and  _288
REMARK  116  A    between atoms: _288  and  _289
REMARK  117  A    between atoms: _289  and  _290
REMARK  118  A    between atoms: _294  and  _296
REMARK  119  A    between atoms: _296  and  _297
REMARK  120  A    between atoms: _300  and  _302
REMARK  121  A    between atoms: _302  and  _303
REMARK  122  A    between atoms: _302  and  _305
REMARK  123  A    between atoms: _305  and  _306
REMARK  124  A    between atoms: _306  and  _307
REMARK  125  A    between atoms: _307  and  _308
REMARK  126  A    between atoms: _308  and  _309
REMARK  127  A    between atoms: _313  and  _315
REMARK  128  A    between atoms: _315  and  _316
REMARK  129  A    between atoms: _318  and  _320
REMARK  130  A    between atoms: _320  and  _321
REMARK  131  A    between atoms: _320  and  _323
REMARK  132  A    between atoms: _323  and  _324
REMARK  133  A    between atoms: _324  and  _325
REMARK  134  A    between atoms: _325  and  _326
REMARK  135  A    between atoms: _335  and  _337
REMARK  136  A    between atoms: _337  and  _338
REMARK  137  A    between atoms: _337  and  _340
REMARK  138  A    between atoms: _340  and  _341
REMARK  139  A    between atoms: _341  and  _342
REMARK  140  A    between atoms: _342  and  _343
REMARK  141  A    between atoms: _343  and  _344
REMARK  142  A    between atoms: _348  and  _350
REMARK  143  A    between atoms: _350  and  _351
REMARK  144  A    between atoms: _350  and  _353
REMARK  145  A    between atoms: _353  and  _354
REMARK  146  A    between atoms: _354  and  _355
REMARK                            x       y       z     vdW  Elec       q    Type
REMARK                         _______ _______ _______ _____ _____    ______ ____
ROOT
ATOM      1  O   HOH     1     -24.027  14.879  48.606  0.00  0.00    +0.000 OA
ENDROOT
TORSDOF 0
REMARK  Name = ../refined-set-2016/3k5i/3k5i_pocket.pdb
REMARK  146 active torsions:
REMARK  status: ('A' for Active; 'I' for Inactive)
REMARK    1  A    between atoms: _1  and  _3
REMARK    2  A    between atoms: _3  and  _4
REMARK    3  A    between atoms: _3  and  _6
REMARK    4  A    between atoms: _6  and  _7
REMARK    5  A    between atoms: _10  and  _12
REMARK    6  A    between atoms: _12  and  _13
REMARK    7  A    between atoms: _15  and  _17
REMARK    8  A    between atoms: _17  and  _18
REMARK    9  A    between atoms: _20  and  _22
REMARK   10  A    between atoms: _22  and  _23
REMARK   11  A    between atoms: _25  and  _27
REMARK   12  A    between atoms: _27  and  _28
REMARK   13  A    between atoms: _27  and  _30
REMARK   14  A    between atoms: _30  and  _31
REMARK   15  A    between atoms: _31  and  _32
REMARK   16  A    between atoms: _37  and  _39
REMARK   17  A    between atoms: _39  and  _40
REMARK   18  A    between atoms: _39  and  _42
REMARK   19  A    between atoms: _42  and  _43
REMARK   20  A    between atoms: _46  and  _48
REMARK   21  A    between atoms: _48  and  _49
REMARK   22  A    between atoms: _51  and  _53
REMARK   23  A    between atoms: _53  and  _54
REMARK   24  A    between atoms: _53  and  _56
REMARK   25  A    between atoms: _56  and  _57
REMARK   26  A    between atoms: _57  and  _58
REMARK   27  A    between atoms: _58  and  _59
REMARK   28  A    between atoms: _68  and  _70
REMARK   29  A    between atoms: _70  and  _71
REMARK   30  A    between atoms: _70  and  _73
REMARK   31  A    between atoms: _73  and  _74
REMARK   32  A    between atoms: _74  and  _75
REMARK   33  A    between atoms: _77  and  _79
REMARK   34  A    between atoms: _79  and  _80
REMARK   35  A    between atoms: _79  and  _82
REMARK   36  A    between atoms: _82  and  _83
REMARK   37  A    between atoms: _86  and  _88
REMARK   38  A    between atoms: _88  and  _89
REMARK   39  A    between atoms: _88  and  _91
REMARK   40  A    between atoms: _91  and  _92
REMARK   41  A    between atoms: _95  and  _97
REMARK   42  A    between atoms: _97  and  _98
REMARK   43  A    between atoms: _97  and  _100
REMARK   44  A    between atoms: _100  and  _101
REMARK   45  A    between atoms: _104  and  _105
REMARK   46  A    between atoms: _110  and  _112
REMARK   47  A    between atoms: _112  and  _113
REMARK   48  A    between atoms: _116  and  _118
REMARK   49  A    between atoms: _118  and  _119
REMARK   50  A    between atoms: _118  and  _121
REMARK   51  A    between atoms: _121  and  _122
REMARK   52  A    between atoms: _128  and  _130
REMARK   53  A    between atoms: _130  and  _131
REMARK   54  A    between atoms: _134  and  _136
REMARK   55  A    between atoms: _136  and  _137
REMARK   56  A    between atoms: _136  and  _139
REMARK   57  A    between atoms: _139  and  _140
REMARK   58  A    between atoms: _140  and  _141
REMARK   59  A    between atoms: _144  and  _146
REMARK   60  A    between atoms: _146  and  _147
REMARK   61  A    between atoms: _146  and  _149
REMARK   62  A    between atoms: _149  and  _150
REMARK   63  A    between atoms: _153  and  _155
REMARK   64  A    between atoms: _155  and  _156
REMARK   65  A    between atoms: _155  and  _158
REMARK   66  A    between atoms: _158  and  _159
REMARK   67  A    between atoms: _159  and  _160
REMARK   68  A    between atoms: _163  and  _165
REMARK   69  A    between atoms: _165  and  _166
REMARK   70  A    between atoms: _165  and  _168
REMARK   71  A    between atoms: _168  and  _169
REMARK   72  A    between atoms: _174  and  _176
REMARK   73  A    between atoms: _176  and  _177
REMARK   74  A    between atoms: _180  and  _182
REMARK   75  A    between atoms: _182  and  _183
REMARK   76  A    between atoms: _182  and  _185
REMARK   77  A    between atoms: _185  and  _186
REMARK   78  A    between atoms: _186  and  _187
REMARK   79  A    between atoms: _187  and  _188
REMARK   80  A    between atoms: _197  and  _199
REMARK   81  A    between atoms: _199  and  _200
REMARK   82  A    between atoms: _199  and  _202
REMARK   83  A    between atoms: _202  and  _203
REMARK   84  A    between atoms: _206  and  _208
REMARK   85  A    between atoms: _208  and  _209
REMARK   86  A    between atoms: _208  and  _211
REMARK   87  A    between atoms: _211  and  _212
REMARK   88  A    between atoms: _217  and  _219
REMARK   89  A    between atoms: _219  and  _220
REMARK   90  A    between atoms: _219  and  _222
REMARK   91  A    between atoms: _222  and  _223
REMARK   92  A    between atoms: _228  and  _230
REMARK   93  A    between atoms: _230  and  _231
REMARK   94  A    between atoms: _230  and  _233
REMARK   95  A    between atoms: _233  and  _234
REMARK   96  A    between atoms: _239  and  _241
REMARK   97  A    between atoms: _241  and  _242
REMARK   98  A    between atoms: _241  and  _244
REMARK   99  A    between atoms: _244  and  _245
REMARK  100  A    between atoms: _251  and  _253
REMARK  101  A    between atoms: _253  and  _254
REMARK  102  A    between atoms: _253  and  _256
REMARK  103  A    between atoms: _256  and  _257
REMARK  104  A    between atoms: _262  and  _264
REMARK  105  A    between atoms: _264  and  _265
REMARK  106  A    between atoms: _267  and  _269
REMARK  107  A    between atoms: _269  and  _270
REMARK  108  A    between atoms: _269  and  _272
REMARK  109  A    between atoms: _272  and  _273
REMARK  110  A    between atoms: _278  and  _279
REMARK  111  A    between atoms: _281  and  _283
REMARK  112  A    between atoms: _283  and  _284
REMARK  113  A    between atoms: _283  and  _286
REMARK  114  A    between atoms: _286  and  _287
REMARK  115  A    between atoms: _287  and  _288
REMARK  116  A    between atoms: _288  and  _289
REMARK  117  A    between atoms: _289  and  _290
REMARK  118  A    between atoms: _294  and  _296
REMARK  119  A    between atoms: _296  and  _297
REMARK  120  A    between atoms: _300  and  _302
REMARK  121  A    between atoms: _302  and  _303
REMARK  122  A    between atoms: _302  and  _305
REMARK  123  A    between atoms: _305  and  _306
REMARK  124  A    between atoms: _306  and  _307
REMARK  125  A    between atoms: _307  and  _308
REMARK  126  A    between atoms: _308  and  _309
REMARK  127  A    between atoms: _313  and  _315
REMARK  128  A    between atoms: _315  and  _316
REMARK  129  A    between atoms: _318  and  _320
REMARK  130  A    between atoms: _320  and  _321
REMARK  131  A    between atoms: _320  and  _323
REMARK  132  A    between atoms: _323  and  _324
REMARK  133  A    between atoms: _324  and  _325
REMARK  134  A    between atoms: _325  and  _326
REMARK  135  A    between atoms: _335  and  _337
REMARK  136  A    between atoms: _337  and  _338
REMARK  137  A    between atoms: _337  and  _340
REMARK  138  A    between atoms: _340  and  _341
REMARK  139  A    between atoms: _341  and  _342
REMARK  140  A    between atoms: _342  and  _343
REMARK  141  A    between atoms: _343  and  _344
REMARK  142  A    between atoms: _348  and  _350
REMARK  143  A    between atoms: _350  and  _351
REMARK  144  A    between atoms: _350  and  _353
REMARK  145  A    between atoms: _353  and  _354
REMARK  146  A    between atoms: _354  and  _355
REMARK                            x       y       z     vdW  Elec       q    Type
REMARK                         _______ _______ _______ _____ _____    ______ ____
ROOT
ATOM      1  O   HOH     1     -15.122   5.955  45.976  0.00  0.00    +0.000 OA
ENDROOT
TORSDOF 0
REMARK  Name = ../refined-set-2016/3k5i/3k5i_pocket.pdb
REMARK  146 active torsions:
REMARK  status: ('A' for Active; 'I' for Inactive)
REMARK    1  A    between atoms: _1  and  _3
REMARK    2  A    between atoms: _3  and  _4
REMARK    3  A    between atoms: _3  and  _6
REMARK    4  A    between atoms: _6  and  _7
REMARK    5  A    between atoms: _10  and  _12
REMARK    6  A    between atoms: _12  and  _13
REMARK    7  A    between atoms: _15  and  _17
REMARK    8  A    between atoms: _17  and  _18
REMARK    9  A    between atoms: _20  and  _22
REMARK   10  A    between atoms: _22  and  _23
REMARK   11  A    between atoms: _25  and  _27
REMARK   12  A    between atoms: _27  and  _28
REMARK   13  A    between atoms: _27  and  _30
REMARK   14  A    between atoms: _30  and  _31
REMARK   15  A    between atoms: _31  and  _32
REMARK   16  A    between atoms: _37  and  _39
REMARK   17  A    between atoms: _39  and  _40
REMARK   18  A    between atoms: _39  and  _42
REMARK   19  A    between atoms: _42  and  _43
REMARK   20  A    between atoms: _46  and  _48
REMARK   21  A    between atoms: _48  and  _49
REMARK   22  A    between atoms: _51  and  _53
REMARK   23  A    between atoms: _53  and  _54
REMARK   24  A    between atoms: _53  and  _56
REMARK   25  A    between atoms: _56  and  _57
REMARK   26  A    between atoms: _57  and  _58
REMARK   27  A    between atoms: _58  and  _59
REMARK   28  A    between atoms: _68  and  _70
REMARK   29  A    between atoms: _70  and  _71
REMARK   30  A    between atoms: _70  and  _73
REMARK   31  A    between atoms: _73  and  _74
REMARK   32  A    between atoms: _74  and  _75
REMARK   33  A    between atoms: _77  and  _79
REMARK   34  A    between atoms: _79  and  _80
REMARK   35  A    between atoms: _79  and  _82
REMARK   36  A    between atoms: _82  and  _83
REMARK   37  A    between atoms: _86  and  _88
REMARK   38  A    between atoms: _88  and  _89
REMARK   39  A    between atoms: _88  and  _91
REMARK   40  A    between atoms: _91  and  _92
REMARK   41  A    between atoms: _95  and  _97
REMARK   42  A    between atoms: _97  and  _98
REMARK   43  A    between atoms: _97  and  _100
REMARK   44  A    between atoms: _100  and  _101
REMARK   45  A    between atoms: _104  and  _105
REMARK   46  A    between atoms: _110  and  _112
REMARK   47  A    between atoms: _112  and  _113
REMARK   48  A    between atoms: _116  and  _118
REMARK   49  A    between atoms: _118  and  _119
REMARK   50  A    between atoms: _118  and  _121
REMARK   51  A    between atoms: _121  and  _122
REMARK   52  A    between atoms: _128  and  _130
REMARK   53  A    between atoms: _130  and  _131
REMARK   54  A    between atoms: _134  and  _136
REMARK   55  A    between atoms: _136  and  _137
REMARK   56  A    between atoms: _136  and  _139
REMARK   57  A    between atoms: _139  and  _140
REMARK   58  A    between atoms: _140  and  _141
REMARK   59  A    between atoms: _144  and  _146
REMARK   60  A    between atoms: _146  and  _147
REMARK   61  A    between atoms: _146  and  _149
REMARK   62  A    between atoms: _149  and  _150
REMARK   63  A    between atoms: _153  and  _155
REMARK   64  A    between atoms: _155  and  _156
REMARK   65  A    between atoms: _155  and  _158
REMARK   66  A    between atoms: _158  and  _159
REMARK   67  A    between atoms: _159  and  _160
REMARK   68  A    between atoms: _163  and  _165
REMARK   69  A    between atoms: _165  and  _166
REMARK   70  A    between atoms: _165  and  _168
REMARK   71  A    between atoms: _168  and  _169
REMARK   72  A    between atoms: _174  and  _176
REMARK   73  A    between atoms: _176  and  _177
REMARK   74  A    between atoms: _180  and  _182
REMARK   75  A    between atoms: _182  and  _183
REMARK   76  A    between atoms: _182  and  _185
REMARK   77  A    between atoms: _185  and  _186
REMARK   78  A    between atoms: _186  and  _187
REMARK   79  A    between atoms: _187  and  _188
REMARK   80  A    between atoms: _197  and  _199
REMARK   81  A    between atoms: _199  and  _200
REMARK   82  A    between atoms: _199  and  _202
REMARK   83  A    between atoms: _202  and  _203
REMARK   84  A    between atoms: _206  and  _208
REMARK   85  A    between atoms: _208  and  _209
REMARK   86  A    between atoms: _208  and  _211
REMARK   87  A    between atoms: _211  and  _212
REMARK   88  A    between atoms: _217  and  _219
REMARK   89  A    between atoms: _219  and  _220
REMARK   90  A    between atoms: _219  and  _222
REMARK   91  A    between atoms: _222  and  _223
REMARK   92  A    between atoms: _228  and  _230
REMARK   93  A    between atoms: _230  and  _231
REMARK   94  A    between atoms: _230  and  _233
REMARK   95  A    between atoms: _233  and  _234
REMARK   96  A    between atoms: _239  and  _241
REMARK   97  A    between atoms: _241  and  _242
REMARK   98  A    between atoms: _241  and  _244
REMARK   99  A    between atoms: _244  and  _245
REMARK  100  A    between atoms: _251  and  _253
REMARK  101  A    between atoms: _253  and  _254
REMARK  102  A    between atoms: _253  and  _256
REMARK  103  A    between atoms: _256  and  _257
REMARK  104  A    between atoms: _262  and  _264
REMARK  105  A    between atoms: _264  and  _265
REMARK  106  A    between atoms: _267  and  _269
REMARK  107  A    between atoms: _269  and  _270
REMARK  108  A    between atoms: _269  and  _272
REMARK  109  A    between atoms: _272  and  _273
REMARK  110  A    between atoms: _278  and  _279
REMARK  111  A    between atoms: _281  and  _283
REMARK  112  A    between atoms: _283  and  _284
REMARK  113  A    between atoms: _283  and  _286
REMARK  114  A    between atoms: _286  and  _287
REMARK  115  A    between atoms: _287  and  _288
REMARK  116  A    between atoms: _288  and  _289
REMARK  117  A    between atoms: _289  and  _290
REMARK  118  A    between atoms: _294  and  _296
REMARK  119  A    between atoms: _296  and  _297
REMARK  120  A    between atoms: _300  and  _302
REMARK  121  A    between atoms: _302  and  _303
REMARK  122  A    between atoms: _302  and  _305
REMARK  123  A    between atoms: _305  and  _306
REMARK  124  A    between atoms: _306  and  _307
REMARK  125  A    between atoms: _307  and  _308
REMARK  126  A    between atoms: _308  and  _309
REMARK  127  A    between atoms: _313  and  _315
REMARK  128  A    between atoms: _315  and  _316
REMARK  129  A    between atoms: _318  and  _320
REMARK  130  A    between atoms: _320  and  _321
REMARK  131  A    between atoms: _320  and  _323
REMARK  132  A    between atoms: _323  and  _324
REMARK  133  A    between atoms: _324  and  _325
REMARK  134  A    between atoms: _325  and  _326
REMARK  135  A    between atoms: _335  and  _337
REMARK  136  A    between atoms: _337  and  _338
REMARK  137  A    between atoms: _337  and  _340
REMARK  138  A    between atoms: _340  and  _341
REMARK  139  A    between atoms: _341  and  _342
REMARK  140  A    between atoms: _342  and  _343
REMARK  141  A    between atoms: _343  and  _344
REMARK  142  A    between atoms: _348  and  _350
REMARK  143  A    between atoms: _350  and  _351
REMARK  144  A    between atoms: _350  and  _353
REMARK  145  A    between atoms: _353  and  _354
REMARK  146  A    between atoms: _354  and  _355
REMARK                            x       y       z     vdW  Elec       q    Type
REMARK                         _______ _______ _______ _____ _____    ______ ____
ROOT
ATOM      1  O   HOH     1     -24.893   0.134  44.428  0.00  0.00    +0.000 OA
ENDROOT
TORSDOF 0
REMARK  Name = ../refined-set-2016/3k5i/3k5i_pocket.pdb
REMARK  146 active torsions:
REMARK  status: ('A' for Active; 'I' for Inactive)
REMARK    1  A    between atoms: _1  and  _3
REMARK    2  A    between atoms: _3  and  _4
REMARK    3  A    between atoms: _3  and  _6
REMARK    4  A    between atoms: _6  and  _7
REMARK    5  A    between atoms: _10  and  _12
REMARK    6  A    between atoms: _12  and  _13
REMARK    7  A    between atoms: _15  and  _17
REMARK    8  A    between atoms: _17  and  _18
REMARK    9  A    between atoms: _20  and  _22
REMARK   10  A    between atoms: _22  and  _23
REMARK   11  A    between atoms: _25  and  _27
REMARK   12  A    between atoms: _27  and  _28
REMARK   13  A    between atoms: _27  and  _30
REMARK   14  A    between atoms: _30  and  _31
REMARK   15  A    between atoms: _31  and  _32
REMARK   16  A    between atoms: _37  and  _39
REMARK   17  A    between atoms: _39  and  _40
REMARK   18  A    between atoms: _39  and  _42
REMARK   19  A    between atoms: _42  and  _43
REMARK   20  A    between atoms: _46  and  _48
REMARK   21  A    between atoms: _48  and  _49
REMARK   22  A    between atoms: _51  and  _53
REMARK   23  A    between atoms: _53  and  _54
REMARK   24  A    between atoms: _53  and  _56
REMARK   25  A    between atoms: _56  and  _57
REMARK   26  A    between atoms: _57  and  _58
REMARK   27  A    between atoms: _58  and  _59
REMARK   28  A    between atoms: _68  and  _70
REMARK   29  A    between atoms: _70  and  _71
REMARK   30  A    between atoms: _70  and  _73
REMARK   31  A    between atoms: _73  and  _74
REMARK   32  A    between atoms: _74  and  _75
REMARK   33  A    between atoms: _77  and  _79
REMARK   34  A    between atoms: _79  and  _80
REMARK   35  A    between atoms: _79  and  _82
REMARK   36  A    between atoms: _82  and  _83
REMARK   37  A    between atoms: _86  and  _88
REMARK   38  A    between atoms: _88  and  _89
REMARK   39  A    between atoms: _88  and  _91
REMARK   40  A    between atoms: _91  and  _92
REMARK   41  A    between atoms: _95  and  _97
REMARK   42  A    between atoms: _97  and  _98
REMARK   43  A    between atoms: _97  and  _100
REMARK   44  A    between atoms: _100  and  _101
REMARK   45  A    between atoms: _104  and  _105
REMARK   46  A    between atoms: _110  and  _112
REMARK   47  A    between atoms: _112  and  _113
REMARK   48  A    between atoms: _116  and  _118
REMARK   49  A    between atoms: _118  and  _119
REMARK   50  A    between atoms: _118  and  _121
REMARK   51  A    between atoms: _121  and  _122
REMARK   52  A    between atoms: _128  and  _130
REMARK   53  A    between atoms: _130  and  _131
REMARK   54  A    between atoms: _134  and  _136
REMARK   55  A    between atoms: _136  and  _137
REMARK   56  A    between atoms: _136  and  _139
REMARK   57  A    between atoms: _139  and  _140
REMARK   58  A    between atoms: _140  and  _141
REMARK   59  A    between atoms: _144  and  _146
REMARK   60  A    between atoms: _146  and  _147
REMARK   61  A    between atoms: _146  and  _149
REMARK   62  A    between atoms: _149  and  _150
REMARK   63  A    between atoms: _153  and  _155
REMARK   64  A    between atoms: _155  and  _156
REMARK   65  A    between atoms: _155  and  _158
REMARK   66  A    between atoms: _158  and  _159
REMARK   67  A    between atoms: _159  and  _160
REMARK   68  A    between atoms: _163  and  _165
REMARK   69  A    between atoms: _165  and  _166
REMARK   70  A    between atoms: _165  and  _168
REMARK   71  A    between atoms: _168  and  _169
REMARK   72  A    between atoms: _174  and  _176
REMARK   73  A    between atoms: _176  and  _177
REMARK   74  A    between atoms: _180  and  _182
REMARK   75  A    between atoms: _182  and  _183
REMARK   76  A    between atoms: _182  and  _185
REMARK   77  A    between atoms: _185  and  _186
REMARK   78  A    between atoms: _186  and  _187
REMARK   79  A    between atoms: _187  and  _188
REMARK   80  A    between atoms: _197  and  _199
REMARK   81  A    between atoms: _199  and  _200
REMARK   82  A    between atoms: _199  and  _202
REMARK   83  A    between atoms: _202  and  _203
REMARK   84  A    between atoms: _206  and  _208
REMARK   85  A    between atoms: _208  and  _209
REMARK   86  A    between atoms: _208  and  _211
REMARK   87  A    between atoms: _211  and  _212
REMARK   88  A    between atoms: _217  and  _219
REMARK   89  A    between atoms: _219  and  _220
REMARK   90  A    between atoms: _219  and  _222
REMARK   91  A    between atoms: _222  and  _223
REMARK   92  A    between atoms: _228  and  _230
REMARK   93  A    between atoms: _230  and  _231
REMARK   94  A    between atoms: _230  and  _233
REMARK   95  A    between atoms: _233  and  _234
REMARK   96  A    between atoms: _239  and  _241
REMARK   97  A    between atoms: _241  and  _242
REMARK   98  A    between atoms: _241  and  _244
REMARK   99  A    between atoms: _244  and  _245
REMARK  100  A    between atoms: _251  and  _253
REMARK  101  A    between atoms: _253  and  _254
REMARK  102  A    between atoms: _253  and  _256
REMARK  103  A    between atoms: _256  and  _257
REMARK  104  A    between atoms: _262  and  _264
REMARK  105  A    between atoms: _264  and  _265
REMARK  106  A    between atoms: _267  and  _269
REMARK  107  A    between atoms: _269  and  _270
REMARK  108  A    between atoms: _269  and  _272
REMARK  109  A    between atoms: _272  and  _273
REMARK  110  A    between atoms: _278  and  _279
REMARK  111  A    between atoms: _281  and  _283
REMARK  112  A    between atoms: _283  and  _284
REMARK  113  A    between atoms: _283  and  _286
REMARK  114  A    between atoms: _286  and  _287
REMARK  115  A    between atoms: _287  and  _288
REMARK  116  A    between atoms: _288  and  _289
REMARK  117  A    between atoms: _289  and  _290
REMARK  118  A    between atoms: _294  and  _296
REMARK  119  A    between atoms: _296  and  _297
REMARK  120  A    between atoms: _300  and  _302
REMARK  121  A    between atoms: _302  and  _303
REMARK  122  A    between atoms: _302  and  _305
REMARK  123  A    between atoms: _305  and  _306
REMARK  124  A    between atoms: _306  and  _307
REMARK  125  A    between atoms: _307  and  _308
REMARK  126  A    between atoms: _308  and  _309
REMARK  127  A    between atoms: _313  and  _315
REMARK  128  A    between atoms: _315  and  _316
REMARK  129  A    between atoms: _318  and  _320
REMARK  130  A    between atoms: _320  and  _321
REMARK  131  A    between atoms: _320  and  _323
REMARK  132  A    between atoms: _323  and  _324
REMARK  133  A    between atoms: _324  and  _325
REMARK  134  A    between atoms: _325  and  _326
REMARK  135  A    between atoms: _335  and  _337
REMARK  136  A    between atoms: _337  and  _338
REMARK  137  A    between atoms: _337  and  _340
REMARK  138  A    between atoms: _340  and  _341
REMARK  139  A    between atoms: _341  and  _342
REMARK  140  A    between atoms: _342  and  _343
REMARK  141  A    between atoms: _343  and  _344
REMARK  142  A    between atoms: _348  and  _350
REMARK  143  A    between atoms: _350  and  _351
REMARK  144  A    between atoms: _350  and  _353
REMARK  145  A    between atoms: _353  and  _354
REMARK  146  A    between atoms: _354  and  _355
REMARK                            x       y       z     vdW  Elec       q    Type
REMARK                         _______ _______ _______ _____ _____    ______ ____
ROOT
ATOM      1  O   HOH     1     -24.041   2.974  45.278  0.00  0.00    +0.000 OA
ENDROOT
TORSDOF 0
REMARK  Name = ../refined-set-2016/3k5i/3k5i_pocket.pdb
REMARK  146 active torsions:
REMARK  status: ('A' for Active; 'I' for Inactive)
REMARK    1  A    between atoms: _1  and  _3
REMARK    2  A    between atoms: _3  and  _4
REMARK    3  A    between atoms: _3  and  _6
REMARK    4  A    between atoms: _6  and  _7
REMARK    5  A    between atoms: _10  and  _12
REMARK    6  A    between atoms: _12  and  _13
REMARK    7  A    between atoms: _15  and  _17
REMARK    8  A    between atoms: _17  and  _18
REMARK    9  A    between atoms: _20  and  _22
REMARK   10  A    between atoms: _22  and  _23
REMARK   11  A    between atoms: _25  and  _27
REMARK   12  A    between atoms: _27  and  _28
REMARK   13  A    between atoms: _27  and  _30
REMARK   14  A    between atoms: _30  and  _31
REMARK   15  A    between atoms: _31  and  _32
REMARK   16  A    between atoms: _37  and  _39
REMARK   17  A    between atoms: _39  and  _40
REMARK   18  A    between atoms: _39  and  _42
REMARK   19  A    between atoms: _42  and  _43
REMARK   20  A    between atoms: _46  and  _48
REMARK   21  A    between atoms: _48  and  _49
REMARK   22  A    between atoms: _51  and  _53
REMARK   23  A    between atoms: _53  and  _54
REMARK   24  A    between atoms: _53  and  _56
REMARK   25  A    between atoms: _56  and  _57
REMARK   26  A    between atoms: _57  and  _58
REMARK   27  A    between atoms: _58  and  _59
REMARK   28  A    between atoms: _68  and  _70
REMARK   29  A    between atoms: _70  and  _71
REMARK   30  A    between atoms: _70  and  _73
REMARK   31  A    between atoms: _73  and  _74
REMARK   32  A    between atoms: _74  and  _75
REMARK   33  A    between atoms: _77  and  _79
REMARK   34  A    between atoms: _79  and  _80
REMARK   35  A    between atoms: _79  and  _82
REMARK   36  A    between atoms: _82  and  _83
REMARK   37  A    between atoms: _86  and  _88
REMARK   38  A    between atoms: _88  and  _89
REMARK   39  A    between atoms: _88  and  _91
REMARK   40  A    between atoms: _91  and  _92
REMARK   41  A    between atoms: _95  and  _97
REMARK   42  A    between atoms: _97  and  _98
REMARK   43  A    between atoms: _97  and  _100
REMARK   44  A    between atoms: _100  and  _101
REMARK   45  A    between atoms: _104  and  _105
REMARK   46  A    between atoms: _110  and  _112
REMARK   47  A    between atoms: _112  and  _113
REMARK   48  A    between atoms: _116  and  _118
REMARK   49  A    between atoms: _118  and  _119
REMARK   50  A    between atoms: _118  and  _121
REMARK   51  A    between atoms: _121  and  _122
REMARK   52  A    between atoms: _128  and  _130
REMARK   53  A    between atoms: _130  and  _131
REMARK   54  A    between atoms: _134  and  _136
REMARK   55  A    between atoms: _136  and  _137
REMARK   56  A    between atoms: _136  and  _139
REMARK   57  A    between atoms: _139  and  _140
REMARK   58  A    between atoms: _140  and  _141
REMARK   59  A    between atoms: _144  and  _146
REMARK   60  A    between atoms: _146  and  _147
REMARK   61  A    between atoms: _146  and  _149
REMARK   62  A    between atoms: _149  and  _150
REMARK   63  A    between atoms: _153  and  _155
REMARK   64  A    between atoms: _155  and  _156
REMARK   65  A    between atoms: _155  and  _158
REMARK   66  A    between atoms: _158  and  _159
REMARK   67  A    between atoms: _159  and  _160
REMARK   68  A    between atoms: _163  and  _165
REMARK   69  A    between atoms: _165  and  _166
REMARK   70  A    between atoms: _165  and  _168
REMARK   71  A    between atoms: _168  and  _169
REMARK   72  A    between atoms: _174  and  _176
REMARK   73  A    between atoms: _176  and  _177
REMARK   74  A    between atoms: _180  and  _182
REMARK   75  A    between atoms: _182  and  _183
REMARK   76  A    between atoms: _182  and  _185
REMARK   77  A    between atoms: _185  and  _186
REMARK   78  A    between atoms: _186  and  _187
REMARK   79  A    between atoms: _187  and  _188
REMARK   80  A    between atoms: _197  and  _199
REMARK   81  A    between atoms: _199  and  _200
REMARK   82  A    between atoms: _199  and  _202
REMARK   83  A    between atoms: _202  and  _203
REMARK   84  A    between atoms: _206  and  _208
REMARK   85  A    between atoms: _208  and  _209
REMARK   86  A    between atoms: _208  and  _211
REMARK   87  A    between atoms: _211  and  _212
REMARK   88  A    between atoms: _217  and  _219
REMARK   89  A    between atoms: _219  and  _220
REMARK   90  A    between atoms: _219  and  _222
REMARK   91  A    between atoms: _222  and  _223
REMARK   92  A    between atoms: _228  and  _230
REMARK   93  A    between atoms: _230  and  _231
REMARK   94  A    between atoms: _230  and  _233
REMARK   95  A    between atoms: _233  and  _234
REMARK   96  A    between atoms: _239  and  _241
REMARK   97  A    between atoms: _241  and  _242
REMARK   98  A    between atoms: _241  and  _244
REMARK   99  A    between atoms: _244  and  _245
REMARK  100  A    between atoms: _251  and  _253
REMARK  101  A    between atoms: _253  and  _254
REMARK  102  A    between atoms: _253  and  _256
REMARK  103  A    between atoms: _256  and  _257
REMARK  104  A    between atoms: _262  and  _264
REMARK  105  A    between atoms: _264  and  _265
REMARK  106  A    between atoms: _267  and  _269
REMARK  107  A    between atoms: _269  and  _270
REMARK  108  A    between atoms: _269  and  _272
REMARK  109  A    between atoms: _272  and  _273
REMARK  110  A    between atoms: _278  and  _279
REMARK  111  A    between atoms: _281  and  _283
REMARK  112  A    between atoms: _283  and  _284
REMARK  113  A    between atoms: _283  and  _286
REMARK  114  A    between atoms: _286  and  _287
REMARK  115  A    between atoms: _287  and  _288
REMARK  116  A    between atoms: _288  and  _289
REMARK  117  A    between atoms: _289  and  _290
REMARK  118  A    between atoms: _294  and  _296
REMARK  119  A    between atoms: _296  and  _297
REMARK  120  A    between atoms: _300  and  _302
REMARK  121  A    between atoms: _302  and  _303
REMARK  122  A    between atoms: _302  and  _305
REMARK  123  A    between atoms: _305  and  _306
REMARK  124  A    between atoms: _306  and  _307
REMARK  125  A    between atoms: _307  and  _308
REMARK  126  A    between atoms: _308  and  _309
REMARK  127  A    between atoms: _313  and  _315
REMARK  128  A    between atoms: _315  and  _316
REMARK  129  A    between atoms: _318  and  _320
REMARK  130  A    between atoms: _320  and  _321
REMARK  131  A    between atoms: _320  and  _323
REMARK  132  A    between atoms: _323  and  _324
REMARK  133  A    between atoms: _324  and  _325
REMARK  134  A    between atoms: _325  and  _326
REMARK  135  A    between atoms: _335  and  _337
REMARK  136  A    between atoms: _337  and  _338
REMARK  137  A    between atoms: _337  and  _340
REMARK  138  A    between atoms: _340  and  _341
REMARK  139  A    between atoms: _341  and  _342
REMARK  140  A    between atoms: _342  and  _343
REMARK  141  A    between atoms: _343  and  _344
REMARK  142  A    between atoms: _348  and  _350
REMARK  143  A    between atoms: _350  and  _351
REMARK  144  A    between atoms: _350  and  _353
REMARK  145  A    between atoms: _353  and  _354
REMARK  146  A    between atoms: _354  and  _355
REMARK                            x       y       z     vdW  Elec       q    Type
REMARK                         _______ _______ _______ _____ _____    ______ ____
ROOT
ATOM      1  O   HOH     1     -23.081   6.581  52.158  0.00  0.00    +0.000 OA
ENDROOT
TORSDOF 0
REMARK  Name = ../refined-set-2016/3k5i/3k5i_pocket.pdb
REMARK  146 active torsions:
REMARK  status: ('A' for Active; 'I' for Inactive)
REMARK    1  A    between atoms: _1  and  _3
REMARK    2  A    between atoms: _3  and  _4
REMARK    3  A    between atoms: _3  and  _6
REMARK    4  A    between atoms: _6  and  _7
REMARK    5  A    between atoms: _10  and  _12
REMARK    6  A    between atoms: _12  and  _13
REMARK    7  A    between atoms: _15  and  _17
REMARK    8  A    between atoms: _17  and  _18
REMARK    9  A    between atoms: _20  and  _22
REMARK   10  A    between atoms: _22  and  _23
REMARK   11  A    between atoms: _25  and  _27
REMARK   12  A    between atoms: _27  and  _28
REMARK   13  A    between atoms: _27  and  _30
REMARK   14  A    between atoms: _30  and  _31
REMARK   15  A    between atoms: _31  and  _32
REMARK   16  A    between atoms: _37  and  _39
REMARK   17  A    between atoms: _39  and  _40
REMARK   18  A    between atoms: _39  and  _42
REMARK   19  A    between atoms: _42  and  _43
REMARK   20  A    between atoms: _46  and  _48
REMARK   21  A    between atoms: _48  and  _49
REMARK   22  A    between atoms: _51  and  _53
REMARK   23  A    between atoms: _53  and  _54
REMARK   24  A    between atoms: _53  and  _56
REMARK   25  A    between atoms: _56  and  _57
REMARK   26  A    between atoms: _57  and  _58
REMARK   27  A    between atoms: _58  and  _59
REMARK   28  A    between atoms: _68  and  _70
REMARK   29  A    between atoms: _70  and  _71
REMARK   30  A    between atoms: _70  and  _73
REMARK   31  A    between atoms: _73  and  _74
REMARK   32  A    between atoms: _74  and  _75
REMARK   33  A    between atoms: _77  and  _79
REMARK   34  A    between atoms: _79  and  _80
REMARK   35  A    between atoms: _79  and  _82
REMARK   36  A    between atoms: _82  and  _83
REMARK   37  A    between atoms: _86  and  _88
REMARK   38  A    between atoms: _88  and  _89
REMARK   39  A    between atoms: _88  and  _91
REMARK   40  A    between atoms: _91  and  _92
REMARK   41  A    between atoms: _95  and  _97
REMARK   42  A    between atoms: _97  and  _98
REMARK   43  A    between atoms: _97  and  _100
REMARK   44  A    between atoms: _100  and  _101
REMARK   45  A    between atoms: _104  and  _105
REMARK   46  A    between atoms: _110  and  _112
REMARK   47  A    between atoms: _112  and  _113
REMARK   48  A    between atoms: _116  and  _118
REMARK   49  A    between atoms: _118  and  _119
REMARK   50  A    between atoms: _118  and  _121
REMARK   51  A    between atoms: _121  and  _122
REMARK   52  A    between atoms: _128  and  _130
REMARK   53  A    between atoms: _130  and  _131
REMARK   54  A    between atoms: _134  and  _136
REMARK   55  A    between atoms: _136  and  _137
REMARK   56  A    between atoms: _136  and  _139
REMARK   57  A    between atoms: _139  and  _140
REMARK   58  A    between atoms: _140  and  _141
REMARK   59  A    between atoms: _144  and  _146
REMARK   60  A    between atoms: _146  and  _147
REMARK   61  A    between atoms: _146  and  _149
REMARK   62  A    between atoms: _149  and  _150
REMARK   63  A    between atoms: _153  and  _155
REMARK   64  A    between atoms: _155  and  _156
REMARK   65  A    between atoms: _155  and  _158
REMARK   66  A    between atoms: _158  and  _159
REMARK   67  A    between atoms: _159  and  _160
REMARK   68  A    between atoms: _163  and  _165
REMARK   69  A    between atoms: _165  and  _166
REMARK   70  A    between atoms: _165  and  _168
REMARK   71  A    between atoms: _168  and  _169
REMARK   72  A    between atoms: _174  and  _176
REMARK   73  A    between atoms: _176  and  _177
REMARK   74  A    between atoms: _180  and  _182
REMARK   75  A    between atoms: _182  and  _183
REMARK   76  A    between atoms: _182  and  _185
REMARK   77  A    between atoms: _185  and  _186
REMARK   78  A    between atoms: _186  and  _187
REMARK   79  A    between atoms: _187  and  _188
REMARK   80  A    between atoms: _197  and  _199
REMARK   81  A    between atoms: _199  and  _200
REMARK   82  A    between atoms: _199  and  _202
REMARK   83  A    between atoms: _202  and  _203
REMARK   84  A    between atoms: _206  and  _208
REMARK   85  A    between atoms: _208  and  _209
REMARK   86  A    between atoms: _208  and  _211
REMARK   87  A    between atoms: _211  and  _212
REMARK   88  A    between atoms: _217  and  _219
REMARK   89  A    between atoms: _219  and  _220
REMARK   90  A    between atoms: _219  and  _222
REMARK   91  A    between atoms: _222  and  _223
REMARK   92  A    between atoms: _228  and  _230
REMARK   93  A    between atoms: _230  and  _231
REMARK   94  A    between atoms: _230  and  _233
REMARK   95  A    between atoms: _233  and  _234
REMARK   96  A    between atoms: _239  and  _241
REMARK   97  A    between atoms: _241  and  _242
REMARK   98  A    between atoms: _241  and  _244
REMARK   99  A    between atoms: _244  and  _245
REMARK  100  A    between atoms: _251  and  _253
REMARK  101  A    between atoms: _253  and  _254
REMARK  102  A    between atoms: _253  and  _256
REMARK  103  A    between atoms: _256  and  _257
REMARK  104  A    between atoms: _262  and  _264
REMARK  105  A    between atoms: _264  and  _265
REMARK  106  A    between atoms: _267  and  _269
REMARK  107  A    between atoms: _269  and  _270
REMARK  108  A    between atoms: _269  and  _272
REMARK  109  A    between atoms: _272  and  _273
REMARK  110  A    between atoms: _278  and  _279
REMARK  111  A    between atoms: _281  and  _283
REMARK  112  A    between atoms: _283  and  _284
REMARK  113  A    between atoms: _283  and  _286
REMARK  114  A    between atoms: _286  and  _287
REMARK  115  A    between atoms: _287  and  _288
REMARK  116  A    between atoms: _288  and  _289
REMARK  117  A    between atoms: _289  and  _290
REMARK  118  A    between atoms: _294  and  _296
REMARK  119  A    between atoms: _296  and  _297
REMARK  120  A    between atoms: _300  and  _302
REMARK  121  A    between atoms: _302  and  _303
REMARK  122  A    between atoms: _302  and  _305
REMARK  123  A    between atoms: _305  and  _306
REMARK  124  A    between atoms: _306  and  _307
REMARK  125  A    between atoms: _307  and  _308
REMARK  126  A    between atoms: _308  and  _309
REMARK  127  A    between atoms: _313  and  _315
REMARK  128  A    between atoms: _315  and  _316
REMARK  129  A    between atoms: _318  and  _320
REMARK  130  A    between atoms: _320  and  _321
REMARK  131  A    between atoms: _320  and  _323
REMARK  132  A    between atoms: _323  and  _324
REMARK  133  A    between atoms: _324  and  _325
REMARK  134  A    between atoms: _325  and  _326
REMARK  135  A    between atoms: _335  and  _337
REMARK  136  A    between atoms: _337  and  _338
REMARK  137  A    between atoms: _337  and  _340
REMARK  138  A    between atoms: _340  and  _341
REMARK  139  A    between atoms: _341  and  _342
REMARK  140  A    between atoms: _342  and  _343
REMARK  141  A    between atoms: _343  and  _344
REMARK  142  A    between atoms: _348  and  _350
REMARK  143  A    between atoms: _350  and  _351
REMARK  144  A    between atoms: _350  and  _353
REMARK  145  A    between atoms: _353  and  _354
REMARK  146  A    between atoms: _354  and  _355
REMARK                            x       y       z     vdW  Elec       q    Type
REMARK                         _______ _______ _______ _____ _____    ______ ____
ROOT
ATOM      1  O   HOH     1     -24.487   6.753  50.174  0.00  0.00    +0.000 OA
ENDROOT
TORSDOF 0
REMARK  Name = ../refined-set-2016/3k5i/3k5i_pocket.pdb
REMARK  146 active torsions:
REMARK  status: ('A' for Active; 'I' for Inactive)
REMARK    1  A    between atoms: _1  and  _3
REMARK    2  A    between atoms: _3  and  _4
REMARK    3  A    between atoms: _3  and  _6
REMARK    4  A    between atoms: _6  and  _7
REMARK    5  A    between atoms: _10  and  _12
REMARK    6  A    between atoms: _12  and  _13
REMARK    7  A    between atoms: _15  and  _17
REMARK    8  A    between atoms: _17  and  _18
REMARK    9  A    between atoms: _20  and  _22
REMARK   10  A    between atoms: _22  and  _23
REMARK   11  A    between atoms: _25  and  _27
REMARK   12  A    between atoms: _27  and  _28
REMARK   13  A    between atoms: _27  and  _30
REMARK   14  A    between atoms: _30  and  _31
REMARK   15  A    between atoms: _31  and  _32
REMARK   16  A    between atoms: _37  and  _39
REMARK   17  A    between atoms: _39  and  _40
REMARK   18  A    between atoms: _39  and  _42
REMARK   19  A    between atoms: _42  and  _43
REMARK   20  A    between atoms: _46  and  _48
REMARK   21  A    between atoms: _48  and  _49
REMARK   22  A    between atoms: _51  and  _53
REMARK   23  A    between atoms: _53  and  _54
REMARK   24  A    between atoms: _53  and  _56
REMARK   25  A    between atoms: _56  and  _57
REMARK   26  A    between atoms: _57  and  _58
REMARK   27  A    between atoms: _58  and  _59
REMARK   28  A    between atoms: _68  and  _70
REMARK   29  A    between atoms: _70  and  _71
REMARK   30  A    between atoms: _70  and  _73
REMARK   31  A    between atoms: _73  and  _74
REMARK   32  A    between atoms: _74  and  _75
REMARK   33  A    between atoms: _77  and  _79
REMARK   34  A    between atoms: _79  and  _80
REMARK   35  A    between atoms: _79  and  _82
REMARK   36  A    between atoms: _82  and  _83
REMARK   37  A    between atoms: _86  and  _88
REMARK   38  A    between atoms: _88  and  _89
REMARK   39  A    between atoms: _88  and  _91
REMARK   40  A    between atoms: _91  and  _92
REMARK   41  A    between atoms: _95  and  _97
REMARK   42  A    between atoms: _97  and  _98
REMARK   43  A    between atoms: _97  and  _100
REMARK   44  A    between atoms: _100  and  _101
REMARK   45  A    between atoms: _104  and  _105
REMARK   46  A    between atoms: _110  and  _112
REMARK   47  A    between atoms: _112  and  _113
REMARK   48  A    between atoms: _116  and  _118
REMARK   49  A    between atoms: _118  and  _119
REMARK   50  A    between atoms: _118  and  _121
REMARK   51  A    between atoms: _121  and  _122
REMARK   52  A    between atoms: _128  and  _130
REMARK   53  A    between atoms: _130  and  _131
REMARK   54  A    between atoms: _134  and  _136
REMARK   55  A    between atoms: _136  and  _137
REMARK   56  A    between atoms: _136  and  _139
REMARK   57  A    between atoms: _139  and  _140
REMARK   58  A    between atoms: _140  and  _141
REMARK   59  A    between atoms: _144  and  _146
REMARK   60  A    between atoms: _146  and  _147
REMARK   61  A    between atoms: _146  and  _149
REMARK   62  A    between atoms: _149  and  _150
REMARK   63  A    between atoms: _153  and  _155
REMARK   64  A    between atoms: _155  and  _156
REMARK   65  A    between atoms: _155  and  _158
REMARK   66  A    between atoms: _158  and  _159
REMARK   67  A    between atoms: _159  and  _160
REMARK   68  A    between atoms: _163  and  _165
REMARK   69  A    between atoms: _165  and  _166
REMARK   70  A    between atoms: _165  and  _168
REMARK   71  A    between atoms: _168  and  _169
REMARK   72  A    between atoms: _174  and  _176
REMARK   73  A    between atoms: _176  and  _177
REMARK   74  A    between atoms: _180  and  _182
REMARK   75  A    between atoms: _182  and  _183
REMARK   76  A    between atoms: _182  and  _185
REMARK   77  A    between atoms: _185  and  _186
REMARK   78  A    between atoms: _186  and  _187
REMARK   79  A    between atoms: _187  and  _188
REMARK   80  A    between atoms: _197  and  _199
REMARK   81  A    between atoms: _199  and  _200
REMARK   82  A    between atoms: _199  and  _202
REMARK   83  A    between atoms: _202  and  _203
REMARK   84  A    between atoms: _206  and  _208
REMARK   85  A    between atoms: _208  and  _209
REMARK   86  A    between atoms: _208  and  _211
REMARK   87  A    between atoms: _211  and  _212
REMARK   88  A    between atoms: _217  and  _219
REMARK   89  A    between atoms: _219  and  _220
REMARK   90  A    between atoms: _219  and  _222
REMARK   91  A    between atoms: _222  and  _223
REMARK   92  A    between atoms: _228  and  _230
REMARK   93  A    between atoms: _230  and  _231
REMARK   94  A    between atoms: _230  and  _233
REMARK   95  A    between atoms: _233  and  _234
REMARK   96  A    between atoms: _239  and  _241
REMARK   97  A    between atoms: _241  and  _242
REMARK   98  A    between atoms: _241  and  _244
REMARK   99  A    between atoms: _244  and  _245
REMARK  100  A    between atoms: _251  and  _253
REMARK  101  A    between atoms: _253  and  _254
REMARK  102  A    between atoms: _253  and  _256
REMARK  103  A    between atoms: _256  and  _257
REMARK  104  A    between atoms: _262  and  _264
REMARK  105  A    between atoms: _264  and  _265
REMARK  106  A    between atoms: _267  and  _269
REMARK  107  A    between atoms: _269  and  _270
REMARK  108  A    between atoms: _269  and  _272
REMARK  109  A    between atoms: _272  and  _273
REMARK  110  A    between atoms: _278  and  _279
REMARK  111  A    between atoms: _281  and  _283
REMARK  112  A    between atoms: _283  and  _284
REMARK  113  A    between atoms: _283  and  _286
REMARK  114  A    between atoms: _286  and  _287
REMARK  115  A    between atoms: _287  and  _288
REMARK  116  A    between atoms: _288  and  _289
REMARK  117  A    between atoms: _289  and  _290
REMARK  118  A    between atoms: _294  and  _296
REMARK  119  A    between atoms: _296  and  _297
REMARK  120  A    between atoms: _300  and  _302
REMARK  121  A    between atoms: _302  and  _303
REMARK  122  A    between atoms: _302  and  _305
REMARK  123  A    between atoms: _305  and  _306
REMARK  124  A    between atoms: _306  and  _307
REMARK  125  A    between atoms: _307  and  _308
REMARK  126  A    between atoms: _308  and  _309
REMARK  127  A    between atoms: _313  and  _315
REMARK  128  A    between atoms: _315  and  _316
REMARK  129  A    between atoms: _318  and  _320
REMARK  130  A    between atoms: _320  and  _321
REMARK  131  A    between atoms: _320  and  _323
REMARK  132  A    between atoms: _323  and  _324
REMARK  133  A    between atoms: _324  and  _325
REMARK  134  A    between atoms: _325  and  _326
REMARK  135  A    between atoms: _335  and  _337
REMARK  136  A    between atoms: _337  and  _338
REMARK  137  A    between atoms: _337  and  _340
REMARK  138  A    between atoms: _340  and  _341
REMARK  139  A    between atoms: _341  and  _342
REMARK  140  A    between atoms: _342  and  _343
REMARK  141  A    between atoms: _343  and  _344
REMARK  142  A    between atoms: _348  and  _350
REMARK  143  A    between atoms: _350  and  _351
REMARK  144  A    between atoms: _350  and  _353
REMARK  145  A    between atoms: _353  and  _354
REMARK  146  A    between atoms: _354  and  _355
REMARK                            x       y       z     vdW  Elec       q    Type
REMARK                         _______ _______ _______ _____ _____    ______ ____
ROOT
ATOM      1  O   HOH     1     -25.596   8.073  48.314  0.00  0.00    +0.000 OA
ENDROOT
TORSDOF 0
REMARK  Name = ../refined-set-2016/3k5i/3k5i_pocket.pdb
REMARK  146 active torsions:
REMARK  status: ('A' for Active; 'I' for Inactive)
REMARK    1  A    between atoms: _1  and  _3
REMARK    2  A    between atoms: _3  and  _4
REMARK    3  A    between atoms: _3  and  _6
REMARK    4  A    between atoms: _6  and  _7
REMARK    5  A    between atoms: _10  and  _12
REMARK    6  A    between atoms: _12  and  _13
REMARK    7  A    between atoms: _15  and  _17
REMARK    8  A    between atoms: _17  and  _18
REMARK    9  A    between atoms: _20  and  _22
REMARK   10  A    between atoms: _22  and  _23
REMARK   11  A    between atoms: _25  and  _27
REMARK   12  A    between atoms: _27  and  _28
REMARK   13  A    between atoms: _27  and  _30
REMARK   14  A    between atoms: _30  and  _31
REMARK   15  A    between atoms: _31  and  _32
REMARK   16  A    between atoms: _37  and  _39
REMARK   17  A    between atoms: _39  and  _40
REMARK   18  A    between atoms: _39  and  _42
REMARK   19  A    between atoms: _42  and  _43
REMARK   20  A    between atoms: _46  and  _48
REMARK   21  A    between atoms: _48  and  _49
REMARK   22  A    between atoms: _51  and  _53
REMARK   23  A    between atoms: _53  and  _54
REMARK   24  A    between atoms: _53  and  _56
REMARK   25  A    between atoms: _56  and  _57
REMARK   26  A    between atoms: _57  and  _58
REMARK   27  A    between atoms: _58  and  _59
REMARK   28  A    between atoms: _68  and  _70
REMARK   29  A    between atoms: _70  and  _71
REMARK   30  A    between atoms: _70  and  _73
REMARK   31  A    between atoms: _73  and  _74
REMARK   32  A    between atoms: _74  and  _75
REMARK   33  A    between atoms: _77  and  _79
REMARK   34  A    between atoms: _79  and  _80
REMARK   35  A    between atoms: _79  and  _82
REMARK   36  A    between atoms: _82  and  _83
REMARK   37  A    between atoms: _86  and  _88
REMARK   38  A    between atoms: _88  and  _89
REMARK   39  A    between atoms: _88  and  _91
REMARK   40  A    between atoms: _91  and  _92
REMARK   41  A    between atoms: _95  and  _97
REMARK   42  A    between atoms: _97  and  _98
REMARK   43  A    between atoms: _97  and  _100
REMARK   44  A    between atoms: _100  and  _101
REMARK   45  A    between atoms: _104  and  _105
REMARK   46  A    between atoms: _110  and  _112
REMARK   47  A    between atoms: _112  and  _113
REMARK   48  A    between atoms: _116  and  _118
REMARK   49  A    between atoms: _118  and  _119
REMARK   50  A    between atoms: _118  and  _121
REMARK   51  A    between atoms: _121  and  _122
REMARK   52  A    between atoms: _128  and  _130
REMARK   53  A    between atoms: _130  and  _131
REMARK   54  A    between atoms: _134  and  _136
REMARK   55  A    between atoms: _136  and  _137
REMARK   56  A    between atoms: _136  and  _139
REMARK   57  A    between atoms: _139  and  _140
REMARK   58  A    between atoms: _140  and  _141
REMARK   59  A    between atoms: _144  and  _146
REMARK   60  A    between atoms: _146  and  _147
REMARK   61  A    between atoms: _146  and  _149
REMARK   62  A    between atoms: _149  and  _150
REMARK   63  A    between atoms: _153  and  _155
REMARK   64  A    between atoms: _155  and  _156
REMARK   65  A    between atoms: _155  and  _158
REMARK   66  A    between atoms: _158  and  _159
REMARK   67  A    between atoms: _159  and  _160
REMARK   68  A    between atoms: _163  and  _165
REMARK   69  A    between atoms: _165  and  _166
REMARK   70  A    between atoms: _165  and  _168
REMARK   71  A    between atoms: _168  and  _169
REMARK   72  A    between atoms: _174  and  _176
REMARK   73  A    between atoms: _176  and  _177
REMARK   74  A    between atoms: _180  and  _182
REMARK   75  A    between atoms: _182  and  _183
REMARK   76  A    between atoms: _182  and  _185
REMARK   77  A    between atoms: _185  and  _186
REMARK   78  A    between atoms: _186  and  _187
REMARK   79  A    between atoms: _187  and  _188
REMARK   80  A    between atoms: _197  and  _199
REMARK   81  A    between atoms: _199  and  _200
REMARK   82  A    between atoms: _199  and  _202
REMARK   83  A    between atoms: _202  and  _203
REMARK   84  A    between atoms: _206  and  _208
REMARK   85  A    between atoms: _208  and  _209
REMARK   86  A    between atoms: _208  and  _211
REMARK   87  A    between atoms: _211  and  _212
REMARK   88  A    between atoms: _217  and  _219
REMARK   89  A    between atoms: _219  and  _220
REMARK   90  A    between atoms: _219  and  _222
REMARK   91  A    between atoms: _222  and  _223
REMARK   92  A    between atoms: _228  and  _230
REMARK   93  A    between atoms: _230  and  _231
REMARK   94  A    between atoms: _230  and  _233
REMARK   95  A    between atoms: _233  and  _234
REMARK   96  A    between atoms: _239  and  _241
REMARK   97  A    between atoms: _241  and  _242
REMARK   98  A    between atoms: _241  and  _244
REMARK   99  A    between atoms: _244  and  _245
REMARK  100  A    between atoms: _251  and  _253
REMARK  101  A    between atoms: _253  and  _254
REMARK  102  A    between atoms: _253  and  _256
REMARK  103  A    between atoms: _256  and  _257
REMARK  104  A    between atoms: _262  and  _264
REMARK  105  A    between atoms: _264  and  _265
REMARK  106  A    between atoms: _267  and  _269
REMARK  107  A    between atoms: _269  and  _270
REMARK  108  A    between atoms: _269  and  _272
REMARK  109  A    between atoms: _272  and  _273
REMARK  110  A    between atoms: _278  and  _279
REMARK  111  A    between atoms: _281  and  _283
REMARK  112  A    between atoms: _283  and  _284
REMARK  113  A    between atoms: _283  and  _286
REMARK  114  A    between atoms: _286  and  _287
REMARK  115  A    between atoms: _287  and  _288
REMARK  116  A    between atoms: _288  and  _289
REMARK  117  A    between atoms: _289  and  _290
REMARK  118  A    between atoms: _294  and  _296
REMARK  119  A    between atoms: _296  and  _297
REMARK  120  A    between atoms: _300  and  _302
REMARK  121  A    between atoms: _302  and  _303
REMARK  122  A    between atoms: _302  and  _305
REMARK  123  A    between atoms: _305  and  _306
REMARK  124  A    between atoms: _306  and  _307
REMARK  125  A    between atoms: _307  and  _308
REMARK  126  A    between atoms: _308  and  _309
REMARK  127  A    between atoms: _313  and  _315
REMARK  128  A    between atoms: _315  and  _316
REMARK  129  A    between atoms: _318  and  _320
REMARK  130  A    between atoms: _320  and  _321
REMARK  131  A    between atoms: _320  and  _323
REMARK  132  A    between atoms: _323  and  _324
REMARK  133  A    between atoms: _324  and  _325
REMARK  134  A    between atoms: _325  and  _326
REMARK  135  A    between atoms: _335  and  _337
REMARK  136  A    between atoms: _337  and  _338
REMARK  137  A    between atoms: _337  and  _340
REMARK  138  A    between atoms: _340  and  _341
REMARK  139  A    between atoms: _341  and  _342
REMARK  140  A    between atoms: _342  and  _343
REMARK  141  A    between atoms: _343  and  _344
REMARK  142  A    between atoms: _348  and  _350
REMARK  143  A    between atoms: _350  and  _351
REMARK  144  A    between atoms: _350  and  _353
REMARK  145  A    between atoms: _353  and  _354
REMARK  146  A    between atoms: _354  and  _355
REMARK                            x       y       z     vdW  Elec       q    Type
REMARK                         _______ _______ _______ _____ _____    ______ ____
ROOT
ATOM      1  O   HOH     1     -27.819   8.606  43.962  0.00  0.00    +0.000 OA
ENDROOT
TORSDOF 0
REMARK  Name = ../refined-set-2016/3k5i/3k5i_pocket.pdb
REMARK  146 active torsions:
REMARK  status: ('A' for Active; 'I' for Inactive)
REMARK    1  A    between atoms: _1  and  _3
REMARK    2  A    between atoms: _3  and  _4
REMARK    3  A    between atoms: _3  and  _6
REMARK    4  A    between atoms: _6  and  _7
REMARK    5  A    between atoms: _10  and  _12
REMARK    6  A    between atoms: _12  and  _13
REMARK    7  A    between atoms: _15  and  _17
REMARK    8  A    between atoms: _17  and  _18
REMARK    9  A    between atoms: _20  and  _22
REMARK   10  A    between atoms: _22  and  _23
REMARK   11  A    between atoms: _25  and  _27
REMARK   12  A    between atoms: _27  and  _28
REMARK   13  A    between atoms: _27  and  _30
REMARK   14  A    between atoms: _30  and  _31
REMARK   15  A    between atoms: _31  and  _32
REMARK   16  A    between atoms: _37  and  _39
REMARK   17  A    between atoms: _39  and  _40
REMARK   18  A    between atoms: _39  and  _42
REMARK   19  A    between atoms: _42  and  _43
REMARK   20  A    between atoms: _46  and  _48
REMARK   21  A    between atoms: _48  and  _49
REMARK   22  A    between atoms: _51  and  _53
REMARK   23  A    between atoms: _53  and  _54
REMARK   24  A    between atoms: _53  and  _56
REMARK   25  A    between atoms: _56  and  _57
REMARK   26  A    between atoms: _57  and  _58
REMARK   27  A    between atoms: _58  and  _59
REMARK   28  A    between atoms: _68  and  _70
REMARK   29  A    between atoms: _70  and  _71
REMARK   30  A    between atoms: _70  and  _73
REMARK   31  A    between atoms: _73  and  _74
REMARK   32  A    between atoms: _74  and  _75
REMARK   33  A    between atoms: _77  and  _79
REMARK   34  A    between atoms: _79  and  _80
REMARK   35  A    between atoms: _79  and  _82
REMARK   36  A    between atoms: _82  and  _83
REMARK   37  A    between atoms: _86  and  _88
REMARK   38  A    between atoms: _88  and  _89
REMARK   39  A    between atoms: _88  and  _91
REMARK   40  A    between atoms: _91  and  _92
REMARK   41  A    between atoms: _95  and  _97
REMARK   42  A    between atoms: _97  and  _98
REMARK   43  A    between atoms: _97  and  _100
REMARK   44  A    between atoms: _100  and  _101
REMARK   45  A    between atoms: _104  and  _105
REMARK   46  A    between atoms: _110  and  _112
REMARK   47  A    between atoms: _112  and  _113
REMARK   48  A    between atoms: _116  and  _118
REMARK   49  A    between atoms: _118  and  _119
REMARK   50  A    between atoms: _118  and  _121
REMARK   51  A    between atoms: _121  and  _122
REMARK   52  A    between atoms: _128  and  _130
REMARK   53  A    between atoms: _130  and  _131
REMARK   54  A    between atoms: _134  and  _136
REMARK   55  A    between atoms: _136  and  _137
REMARK   56  A    between atoms: _136  and  _139
REMARK   57  A    between atoms: _139  and  _140
REMARK   58  A    between atoms: _140  and  _141
REMARK   59  A    between atoms: _144  and  _146
REMARK   60  A    between atoms: _146  and  _147
REMARK   61  A    between atoms: _146  and  _149
REMARK   62  A    between atoms: _149  and  _150
REMARK   63  A    between atoms: _153  and  _155
REMARK   64  A    between atoms: _155  and  _156
REMARK   65  A    between atoms: _155  and  _158
REMARK   66  A    between atoms: _158  and  _159
REMARK   67  A    between atoms: _159  and  _160
REMARK   68  A    between atoms: _163  and  _165
REMARK   69  A    between atoms: _165  and  _166
REMARK   70  A    between atoms: _165  and  _168
REMARK   71  A    between atoms: _168  and  _169
REMARK   72  A    between atoms: _174  and  _176
REMARK   73  A    between atoms: _176  and  _177
REMARK   74  A    between atoms: _180  and  _182
REMARK   75  A    between atoms: _182  and  _183
REMARK   76  A    between atoms: _182  and  _185
REMARK   77  A    between atoms: _185  and  _186
REMARK   78  A    between atoms: _186  and  _187
REMARK   79  A    between atoms: _187  and  _188
REMARK   80  A    between atoms: _197  and  _199
REMARK   81  A    between atoms: _199  and  _200
REMARK   82  A    between atoms: _199  and  _202
REMARK   83  A    between atoms: _202  and  _203
REMARK   84  A    between atoms: _206  and  _208
REMARK   85  A    between atoms: _208  and  _209
REMARK   86  A    between atoms: _208  and  _211
REMARK   87  A    between atoms: _211  and  _212
REMARK   88  A    between atoms: _217  and  _219
REMARK   89  A    between atoms: _219  and  _220
REMARK   90  A    between atoms: _219  and  _222
REMARK   91  A    between atoms: _222  and  _223
REMARK   92  A    between atoms: _228  and  _230
REMARK   93  A    between atoms: _230  and  _231
REMARK   94  A    between atoms: _230  and  _233
REMARK   95  A    between atoms: _233  and  _234
REMARK   96  A    between atoms: _239  and  _241
REMARK   97  A    between atoms: _241  and  _242
REMARK   98  A    between atoms: _241  and  _244
REMARK   99  A    between atoms: _244  and  _245
REMARK  100  A    between atoms: _251  and  _253
REMARK  101  A    between atoms: _253  and  _254
REMARK  102  A    between atoms: _253  and  _256
REMARK  103  A    between atoms: _256  and  _257
REMARK  104  A    between atoms: _262  and  _264
REMARK  105  A    between atoms: _264  and  _265
REMARK  106  A    between atoms: _267  and  _269
REMARK  107  A    between atoms: _269  and  _270
REMARK  108  A    between atoms: _269  and  _272
REMARK  109  A    between atoms: _272  and  _273
REMARK  110  A    between atoms: _278  and  _279
REMARK  111  A    between atoms: _281  and  _283
REMARK  112  A    between atoms: _283  and  _284
REMARK  113  A    between atoms: _283  and  _286
REMARK  114  A    between atoms: _286  and  _287
REMARK  115  A    between atoms: _287  and  _288
REMARK  116  A    between atoms: _288  and  _289
REMARK  117  A    between atoms: _289  and  _290
REMARK  118  A    between atoms: _294  and  _296
REMARK  119  A    between atoms: _296  and  _297
REMARK  120  A    between atoms: _300  and  _302
REMARK  121  A    between atoms: _302  and  _303
REMARK  122  A    between atoms: _302  and  _305
REMARK  123  A    between atoms: _305  and  _306
REMARK  124  A    between atoms: _306  and  _307
REMARK  125  A    between atoms: _307  and  _308
REMARK  126  A    between atoms: _308  and  _309
REMARK  127  A    between atoms: _313  and  _315
REMARK  128  A    between atoms: _315  and  _316
REMARK  129  A    between atoms: _318  and  _320
REMARK  130  A    between atoms: _320  and  _321
REMARK  131  A    between atoms: _320  and  _323
REMARK  132  A    between atoms: _323  and  _324
REMARK  133  A    between atoms: _324  and  _325
REMARK  134  A    between atoms: _325  and  _326
REMARK  135  A    between atoms: _335  and  _337
REMARK  136  A    between atoms: _337  and  _338
REMARK  137  A    between atoms: _337  and  _340
REMARK  138  A    between atoms: _340  and  _341
REMARK  139  A    between atoms: _341  and  _342
REMARK  140  A    between atoms: _342  and  _343
REMARK  141  A    between atoms: _343  and  _344
REMARK  142  A    between atoms: _348  and  _350
REMARK  143  A    between atoms: _350  and  _351
REMARK  144  A    between atoms: _350  and  _353
REMARK  145  A    between atoms: _353  and  _354
REMARK  146  A    between atoms: _354  and  _355
REMARK                            x       y       z     vdW  Elec       q    Type
REMARK                         _______ _______ _______ _____ _____    ______ ____
ROOT
ATOM      1  O   HOH     1     -24.021  10.896  54.676  0.00  0.00    +0.000 OA
ENDROOT
TORSDOF 0
REMARK  Name = ../refined-set-2016/3k5i/3k5i_pocket.pdb
REMARK  146 active torsions:
REMARK  status: ('A' for Active; 'I' for Inactive)
REMARK    1  A    between atoms: _1  and  _3
REMARK    2  A    between atoms: _3  and  _4
REMARK    3  A    between atoms: _3  and  _6
REMARK    4  A    between atoms: _6  and  _7
REMARK    5  A    between atoms: _10  and  _12
REMARK    6  A    between atoms: _12  and  _13
REMARK    7  A    between atoms: _15  and  _17
REMARK    8  A    between atoms: _17  and  _18
REMARK    9  A    between atoms: _20  and  _22
REMARK   10  A    between atoms: _22  and  _23
REMARK   11  A    between atoms: _25  and  _27
REMARK   12  A    between atoms: _27  and  _28
REMARK   13  A    between atoms: _27  and  _30
REMARK   14  A    between atoms: _30  and  _31
REMARK   15  A    between atoms: _31  and  _32
REMARK   16  A    between atoms: _37  and  _39
REMARK   17  A    between atoms: _39  and  _40
REMARK   18  A    between atoms: _39  and  _42
REMARK   19  A    between atoms: _42  and  _43
REMARK   20  A    between atoms: _46  and  _48
REMARK   21  A    between atoms: _48  and  _49
REMARK   22  A    between atoms: _51  and  _53
REMARK   23  A    between atoms: _53  and  _54
REMARK   24  A    between atoms: _53  and  _56
REMARK   25  A    between atoms: _56  and  _57
REMARK   26  A    between atoms: _57  and  _58
REMARK   27  A    between atoms: _58  and  _59
REMARK   28  A    between atoms: _68  and  _70
REMARK   29  A    between atoms: _70  and  _71
REMARK   30  A    between atoms: _70  and  _73
REMARK   31  A    between atoms: _73  and  _74
REMARK   32  A    between atoms: _74  and  _75
REMARK   33  A    between atoms: _77  and  _79
REMARK   34  A    between atoms: _79  and  _80
REMARK   35  A    between atoms: _79  and  _82
REMARK   36  A    between atoms: _82  and  _83
REMARK   37  A    between atoms: _86  and  _88
REMARK   38  A    between atoms: _88  and  _89
REMARK   39  A    between atoms: _88  and  _91
REMARK   40  A    between atoms: _91  and  _92
REMARK   41  A    between atoms: _95  and  _97
REMARK   42  A    between atoms: _97  and  _98
REMARK   43  A    between atoms: _97  and  _100
REMARK   44  A    between atoms: _100  and  _101
REMARK   45  A    between atoms: _104  and  _105
REMARK   46  A    between atoms: _110  and  _112
REMARK   47  A    between atoms: _112  and  _113
REMARK   48  A    between atoms: _116  and  _118
REMARK   49  A    between atoms: _118  and  _119
REMARK   50  A    between atoms: _118  and  _121
REMARK   51  A    between atoms: _121  and  _122
REMARK   52  A    between atoms: _128  and  _130
REMARK   53  A    between atoms: _130  and  _131
REMARK   54  A    between atoms: _134  and  _136
REMARK   55  A    between atoms: _136  and  _137
REMARK   56  A    between atoms: _136  and  _139
REMARK   57  A    between atoms: _139  and  _140
REMARK   58  A    between atoms: _140  and  _141
REMARK   59  A    between atoms: _144  and  _146
REMARK   60  A    between atoms: _146  and  _147
REMARK   61  A    between atoms: _146  and  _149
REMARK   62  A    between atoms: _149  and  _150
REMARK   63  A    between atoms: _153  and  _155
REMARK   64  A    between atoms: _155  and  _156
REMARK   65  A    between atoms: _155  and  _158
REMARK   66  A    between atoms: _158  and  _159
REMARK   67  A    between atoms: _159  and  _160
REMARK   68  A    between atoms: _163  and  _165
REMARK   69  A    between atoms: _165  and  _166
REMARK   70  A    between atoms: _165  and  _168
REMARK   71  A    between atoms: _168  and  _169
REMARK   72  A    between atoms: _174  and  _176
REMARK   73  A    between atoms: _176  and  _177
REMARK   74  A    between atoms: _180  and  _182
REMARK   75  A    between atoms: _182  and  _183
REMARK   76  A    between atoms: _182  and  _185
REMARK   77  A    between atoms: _185  and  _186
REMARK   78  A    between atoms: _186  and  _187
REMARK   79  A    between atoms: _187  and  _188
REMARK   80  A    between atoms: _197  and  _199
REMARK   81  A    between atoms: _199  and  _200
REMARK   82  A    between atoms: _199  and  _202
REMARK   83  A    between atoms: _202  and  _203
REMARK   84  A    between atoms: _206  and  _208
REMARK   85  A    between atoms: _208  and  _209
REMARK   86  A    between atoms: _208  and  _211
REMARK   87  A    between atoms: _211  and  _212
REMARK   88  A    between atoms: _217  and  _219
REMARK   89  A    between atoms: _219  and  _220
REMARK   90  A    between atoms: _219  and  _222
REMARK   91  A    between atoms: _222  and  _223
REMARK   92  A    between atoms: _228  and  _230
REMARK   93  A    between atoms: _230  and  _231
REMARK   94  A    between atoms: _230  and  _233
REMARK   95  A    between atoms: _233  and  _234
REMARK   96  A    between atoms: _239  and  _241
REMARK   97  A    between atoms: _241  and  _242
REMARK   98  A    between atoms: _241  and  _244
REMARK   99  A    between atoms: _244  and  _245
REMARK  100  A    between atoms: _251  and  _253
REMARK  101  A    between atoms: _253  and  _254
REMARK  102  A    between atoms: _253  and  _256
REMARK  103  A    between atoms: _256  and  _257
REMARK  104  A    between atoms: _262  and  _264
REMARK  105  A    between atoms: _264  and  _265
REMARK  106  A    between atoms: _267  and  _269
REMARK  107  A    between atoms: _269  and  _270
REMARK  108  A    between atoms: _269  and  _272
REMARK  109  A    between atoms: _272  and  _273
REMARK  110  A    between atoms: _278  and  _279
REMARK  111  A    between atoms: _281  and  _283
REMARK  112  A    between atoms: _283  and  _284
REMARK  113  A    between atoms: _283  and  _286
REMARK  114  A    between atoms: _286  and  _287
REMARK  115  A    between atoms: _287  and  _288
REMARK  116  A    between atoms: _288  and  _289
REMARK  117  A    between atoms: _289  and  _290
REMARK  118  A    between atoms: _294  and  _296
REMARK  119  A    between atoms: _296  and  _297
REMARK  120  A    between atoms: _300  and  _302
REMARK  121  A    between atoms: _302  and  _303
REMARK  122  A    between atoms: _302  and  _305
REMARK  123  A    between atoms: _305  and  _306
REMARK  124  A    between atoms: _306  and  _307
REMARK  125  A    between atoms: _307  and  _308
REMARK  126  A    between atoms: _308  and  _309
REMARK  127  A    between atoms: _313  and  _315
REMARK  128  A    between atoms: _315  and  _316
REMARK  129  A    between atoms: _318  and  _320
REMARK  130  A    between atoms: _320  and  _321
REMARK  131  A    between atoms: _320  and  _323
REMARK  132  A    between atoms: _323  and  _324
REMARK  133  A    between atoms: _324  and  _325
REMARK  134  A    between atoms: _325  and  _326
REMARK  135  A    between atoms: _335  and  _337
REMARK  136  A    between atoms: _337  and  _338
REMARK  137  A    between atoms: _337  and  _340
REMARK  138  A    between atoms: _340  and  _341
REMARK  139  A    between atoms: _341  and  _342
REMARK  140  A    between atoms: _342  and  _343
REMARK  141  A    between atoms: _343  and  _344
REMARK  142  A    between atoms: _348  and  _350
REMARK  143  A    between atoms: _350  and  _351
REMARK  144  A    between atoms: _350  and  _353
REMARK  145  A    between atoms: _353  and  _354
REMARK  146  A    between atoms: _354  and  _355
REMARK                            x       y       z     vdW  Elec       q    Type
REMARK                         _______ _______ _______ _____ _____    ______ ____
ROOT
ATOM      1  O   HOH     1     -22.523  12.155  55.764  0.00  0.00    +0.000 OA
ENDROOT
TORSDOF 0
REMARK  Name = ../refined-set-2016/3k5i/3k5i_pocket.pdb
REMARK  146 active torsions:
REMARK  status: ('A' for Active; 'I' for Inactive)
REMARK    1  A    between atoms: _1  and  _3
REMARK    2  A    between atoms: _3  and  _4
REMARK    3  A    between atoms: _3  and  _6
REMARK    4  A    between atoms: _6  and  _7
REMARK    5  A    between atoms: _10  and  _12
REMARK    6  A    between atoms: _12  and  _13
REMARK    7  A    between atoms: _15  and  _17
REMARK    8  A    between atoms: _17  and  _18
REMARK    9  A    between atoms: _20  and  _22
REMARK   10  A    between atoms: _22  and  _23
REMARK   11  A    between atoms: _25  and  _27
REMARK   12  A    between atoms: _27  and  _28
REMARK   13  A    between atoms: _27  and  _30
REMARK   14  A    between atoms: _30  and  _31
REMARK   15  A    between atoms: _31  and  _32
REMARK   16  A    between atoms: _37  and  _39
REMARK   17  A    between atoms: _39  and  _40
REMARK   18  A    between atoms: _39  and  _42
REMARK   19  A    between atoms: _42  and  _43
REMARK   20  A    between atoms: _46  and  _48
REMARK   21  A    between atoms: _48  and  _49
REMARK   22  A    between atoms: _51  and  _53
REMARK   23  A    between atoms: _53  and  _54
REMARK   24  A    between atoms: _53  and  _56
REMARK   25  A    between atoms: _56  and  _57
REMARK   26  A    between atoms: _57  and  _58
REMARK   27  A    between atoms: _58  and  _59
REMARK   28  A    between atoms: _68  and  _70
REMARK   29  A    between atoms: _70  and  _71
REMARK   30  A    between atoms: _70  and  _73
REMARK   31  A    between atoms: _73  and  _74
REMARK   32  A    between atoms: _74  and  _75
REMARK   33  A    between atoms: _77  and  _79
REMARK   34  A    between atoms: _79  and  _80
REMARK   35  A    between atoms: _79  and  _82
REMARK   36  A    between atoms: _82  and  _83
REMARK   37  A    between atoms: _86  and  _88
REMARK   38  A    between atoms: _88  and  _89
REMARK   39  A    between atoms: _88  and  _91
REMARK   40  A    between atoms: _91  and  _92
REMARK   41  A    between atoms: _95  and  _97
REMARK   42  A    between atoms: _97  and  _98
REMARK   43  A    between atoms: _97  and  _100
REMARK   44  A    between atoms: _100  and  _101
REMARK   45  A    between atoms: _104  and  _105
REMARK   46  A    between atoms: _110  and  _112
REMARK   47  A    between atoms: _112  and  _113
REMARK   48  A    between atoms: _116  and  _118
REMARK   49  A    between atoms: _118  and  _119
REMARK   50  A    between atoms: _118  and  _121
REMARK   51  A    between atoms: _121  and  _122
REMARK   52  A    between atoms: _128  and  _130
REMARK   53  A    between atoms: _130  and  _131
REMARK   54  A    between atoms: _134  and  _136
REMARK   55  A    between atoms: _136  and  _137
REMARK   56  A    between atoms: _136  and  _139
REMARK   57  A    between atoms: _139  and  _140
REMARK   58  A    between atoms: _140  and  _141
REMARK   59  A    between atoms: _144  and  _146
REMARK   60  A    between atoms: _146  and  _147
REMARK   61  A    between atoms: _146  and  _149
REMARK   62  A    between atoms: _149  and  _150
REMARK   63  A    between atoms: _153  and  _155
REMARK   64  A    between atoms: _155  and  _156
REMARK   65  A    between atoms: _155  and  _158
REMARK   66  A    between atoms: _158  and  _159
REMARK   67  A    between atoms: _159  and  _160
REMARK   68  A    between atoms: _163  and  _165
REMARK   69  A    between atoms: _165  and  _166
REMARK   70  A    between atoms: _165  and  _168
REMARK   71  A    between atoms: _168  and  _169
REMARK   72  A    between atoms: _174  and  _176
REMARK   73  A    between atoms: _176  and  _177
REMARK   74  A    between atoms: _180  and  _182
REMARK   75  A    between atoms: _182  and  _183
REMARK   76  A    between atoms: _182  and  _185
REMARK   77  A    between atoms: _185  and  _186
REMARK   78  A    between atoms: _186  and  _187
REMARK   79  A    between atoms: _187  and  _188
REMARK   80  A    between atoms: _197  and  _199
REMARK   81  A    between atoms: _199  and  _200
REMARK   82  A    between atoms: _199  and  _202
REMARK   83  A    between atoms: _202  and  _203
REMARK   84  A    between atoms: _206  and  _208
REMARK   85  A    between atoms: _208  and  _209
REMARK   86  A    between atoms: _208  and  _211
REMARK   87  A    between atoms: _211  and  _212
REMARK   88  A    between atoms: _217  and  _219
REMARK   89  A    between atoms: _219  and  _220
REMARK   90  A    between atoms: _219  and  _222
REMARK   91  A    between atoms: _222  and  _223
REMARK   92  A    between atoms: _228  and  _230
REMARK   93  A    between atoms: _230  and  _231
REMARK   94  A    between atoms: _230  and  _233
REMARK   95  A    between atoms: _233  and  _234
REMARK   96  A    between atoms: _239  and  _241
REMARK   97  A    between atoms: _241  and  _242
REMARK   98  A    between atoms: _241  and  _244
REMARK   99  A    between atoms: _244  and  _245
REMARK  100  A    between atoms: _251  and  _253
REMARK  101  A    between atoms: _253  and  _254
REMARK  102  A    between atoms: _253  and  _256
REMARK  103  A    between atoms: _256  and  _257
REMARK  104  A    between atoms: _262  and  _264
REMARK  105  A    between atoms: _264  and  _265
REMARK  106  A    between atoms: _267  and  _269
REMARK  107  A    between atoms: _269  and  _270
REMARK  108  A    between atoms: _269  and  _272
REMARK  109  A    between atoms: _272  and  _273
REMARK  110  A    between atoms: _278  and  _279
REMARK  111  A    between atoms: _281  and  _283
REMARK  112  A    between atoms: _283  and  _284
REMARK  113  A    between atoms: _283  and  _286
REMARK  114  A    between atoms: _286  and  _287
REMARK  115  A    between atoms: _287  and  _288
REMARK  116  A    between atoms: _288  and  _289
REMARK  117  A    between atoms: _289  and  _290
REMARK  118  A    between atoms: _294  and  _296
REMARK  119  A    between atoms: _296  and  _297
REMARK  120  A    between atoms: _300  and  _302
REMARK  121  A    between atoms: _302  and  _303
REMARK  122  A    between atoms: _302  and  _305
REMARK  123  A    between atoms: _305  and  _306
REMARK  124  A    between atoms: _306  and  _307
REMARK  125  A    between atoms: _307  and  _308
REMARK  126  A    between atoms: _308  and  _309
REMARK  127  A    between atoms: _313  and  _315
REMARK  128  A    between atoms: _315  and  _316
REMARK  129  A    between atoms: _318  and  _320
REMARK  130  A    between atoms: _320  and  _321
REMARK  131  A    between atoms: _320  and  _323
REMARK  132  A    between atoms: _323  and  _324
REMARK  133  A    between atoms: _324  and  _325
REMARK  134  A    between atoms: _325  and  _326
REMARK  135  A    between atoms: _335  and  _337
REMARK  136  A    between atoms: _337  and  _338
REMARK  137  A    between atoms: _337  and  _340
REMARK  138  A    between atoms: _340  and  _341
REMARK  139  A    between atoms: _341  and  _342
REMARK  140  A    between atoms: _342  and  _343
REMARK  141  A    between atoms: _343  and  _344
REMARK  142  A    between atoms: _348  and  _350
REMARK  143  A    between atoms: _350  and  _351
REMARK  144  A    between atoms: _350  and  _353
REMARK  145  A    between atoms: _353  and  _354
REMARK  146  A    between atoms: _354  and  _355
REMARK                            x       y       z     vdW  Elec       q    Type
REMARK                         _______ _______ _______ _____ _____    ______ ____
ROOT
ATOM      1  O   HOH     1     -20.084   1.142  43.651  0.00  0.00    +0.000 OA
ENDROOT
TORSDOF 0
REMARK  Name = ../refined-set-2016/3k5i/3k5i_pocket.pdb
REMARK  146 active torsions:
REMARK  status: ('A' for Active; 'I' for Inactive)
REMARK    1  A    between atoms: _1  and  _3
REMARK    2  A    between atoms: _3  and  _4
REMARK    3  A    between atoms: _3  and  _6
REMARK    4  A    between atoms: _6  and  _7
REMARK    5  A    between atoms: _10  and  _12
REMARK    6  A    between atoms: _12  and  _13
REMARK    7  A    between atoms: _15  and  _17
REMARK    8  A    between atoms: _17  and  _18
REMARK    9  A    between atoms: _20  and  _22
REMARK   10  A    between atoms: _22  and  _23
REMARK   11  A    between atoms: _25  and  _27
REMARK   12  A    between atoms: _27  and  _28
REMARK   13  A    between atoms: _27  and  _30
REMARK   14  A    between atoms: _30  and  _31
REMARK   15  A    between atoms: _31  and  _32
REMARK   16  A    between atoms: _37  and  _39
REMARK   17  A    between atoms: _39  and  _40
REMARK   18  A    between atoms: _39  and  _42
REMARK   19  A    between atoms: _42  and  _43
REMARK   20  A    between atoms: _46  and  _48
REMARK   21  A    between atoms: _48  and  _49
REMARK   22  A    between atoms: _51  and  _53
REMARK   23  A    between atoms: _53  and  _54
REMARK   24  A    between atoms: _53  and  _56
REMARK   25  A    between atoms: _56  and  _57
REMARK   26  A    between atoms: _57  and  _58
REMARK   27  A    between atoms: _58  and  _59
REMARK   28  A    between atoms: _68  and  _70
REMARK   29  A    between atoms: _70  and  _71
REMARK   30  A    between atoms: _70  and  _73
REMARK   31  A    between atoms: _73  and  _74
REMARK   32  A    between atoms: _74  and  _75
REMARK   33  A    between atoms: _77  and  _79
REMARK   34  A    between atoms: _79  and  _80
REMARK   35  A    between atoms: _79  and  _82
REMARK   36  A    between atoms: _82  and  _83
REMARK   37  A    between atoms: _86  and  _88
REMARK   38  A    between atoms: _88  and  _89
REMARK   39  A    between atoms: _88  and  _91
REMARK   40  A    between atoms: _91  and  _92
REMARK   41  A    between atoms: _95  and  _97
REMARK   42  A    between atoms: _97  and  _98
REMARK   43  A    between atoms: _97  and  _100
REMARK   44  A    between atoms: _100  and  _101
REMARK   45  A    between atoms: _104  and  _105
REMARK   46  A    between atoms: _110  and  _112
REMARK   47  A    between atoms: _112  and  _113
REMARK   48  A    between atoms: _116  and  _118
REMARK   49  A    between atoms: _118  and  _119
REMARK   50  A    between atoms: _118  and  _121
REMARK   51  A    between atoms: _121  and  _122
REMARK   52  A    between atoms: _128  and  _130
REMARK   53  A    between atoms: _130  and  _131
REMARK   54  A    between atoms: _134  and  _136
REMARK   55  A    between atoms: _136  and  _137
REMARK   56  A    between atoms: _136  and  _139
REMARK   57  A    between atoms: _139  and  _140
REMARK   58  A    between atoms: _140  and  _141
REMARK   59  A    between atoms: _144  and  _146
REMARK   60  A    between atoms: _146  and  _147
REMARK   61  A    between atoms: _146  and  _149
REMARK   62  A    between atoms: _149  and  _150
REMARK   63  A    between atoms: _153  and  _155
REMARK   64  A    between atoms: _155  and  _156
REMARK   65  A    between atoms: _155  and  _158
REMARK   66  A    between atoms: _158  and  _159
REMARK   67  A    between atoms: _159  and  _160
REMARK   68  A    between atoms: _163  and  _165
REMARK   69  A    between atoms: _165  and  _166
REMARK   70  A    between atoms: _165  and  _168
REMARK   71  A    between atoms: _168  and  _169
REMARK   72  A    between atoms: _174  and  _176
REMARK   73  A    between atoms: _176  and  _177
REMARK   74  A    between atoms: _180  and  _182
REMARK   75  A    between atoms: _182  and  _183
REMARK   76  A    between atoms: _182  and  _185
REMARK   77  A    between atoms: _185  and  _186
REMARK   78  A    between atoms: _186  and  _187
REMARK   79  A    between atoms: _187  and  _188
REMARK   80  A    between atoms: _197  and  _199
REMARK   81  A    between atoms: _199  and  _200
REMARK   82  A    between atoms: _199  and  _202
REMARK   83  A    between atoms: _202  and  _203
REMARK   84  A    between atoms: _206  and  _208
REMARK   85  A    between atoms: _208  and  _209
REMARK   86  A    between atoms: _208  and  _211
REMARK   87  A    between atoms: _211  and  _212
REMARK   88  A    between atoms: _217  and  _219
REMARK   89  A    between atoms: _219  and  _220
REMARK   90  A    between atoms: _219  and  _222
REMARK   91  A    between atoms: _222  and  _223
REMARK   92  A    between atoms: _228  and  _230
REMARK   93  A    between atoms: _230  and  _231
REMARK   94  A    between atoms: _230  and  _233
REMARK   95  A    between atoms: _233  and  _234
REMARK   96  A    between atoms: _239  and  _241
REMARK   97  A    between atoms: _241  and  _242
REMARK   98  A    between atoms: _241  and  _244
REMARK   99  A    between atoms: _244  and  _245
REMARK  100  A    between atoms: _251  and  _253
REMARK  101  A    between atoms: _253  and  _254
REMARK  102  A    between atoms: _253  and  _256
REMARK  103  A    between atoms: _256  and  _257
REMARK  104  A    between atoms: _262  and  _264
REMARK  105  A    between atoms: _264  and  _265
REMARK  106  A    between atoms: _267  and  _269
REMARK  107  A    between atoms: _269  and  _270
REMARK  108  A    between atoms: _269  and  _272
REMARK  109  A    between atoms: _272  and  _273
REMARK  110  A    between atoms: _278  and  _279
REMARK  111  A    between atoms: _281  and  _283
REMARK  112  A    between atoms: _283  and  _284
REMARK  113  A    between atoms: _283  and  _286
REMARK  114  A    between atoms: _286  and  _287
REMARK  115  A    between atoms: _287  and  _288
REMARK  116  A    between atoms: _288  and  _289
REMARK  117  A    between atoms: _289  and  _290
REMARK  118  A    between atoms: _294  and  _296
REMARK  119  A    between atoms: _296  and  _297
REMARK  120  A    between atoms: _300  and  _302
REMARK  121  A    between atoms: _302  and  _303
REMARK  122  A    between atoms: _302  and  _305
REMARK  123  A    between atoms: _305  and  _306
REMARK  124  A    between atoms: _306  and  _307
REMARK  125  A    between atoms: _307  and  _308
REMARK  126  A    between atoms: _308  and  _309
REMARK  127  A    between atoms: _313  and  _315
REMARK  128  A    between atoms: _315  and  _316
REMARK  129  A    between atoms: _318  and  _320
REMARK  130  A    between atoms: _320  and  _321
REMARK  131  A    between atoms: _320  and  _323
REMARK  132  A    between atoms: _323  and  _324
REMARK  133  A    between atoms: _324  and  _325
REMARK  134  A    between atoms: _325  and  _326
REMARK  135  A    between atoms: _335  and  _337
REMARK  136  A    between atoms: _337  and  _338
REMARK  137  A    between atoms: _337  and  _340
REMARK  138  A    between atoms: _340  and  _341
REMARK  139  A    between atoms: _341  and  _342
REMARK  140  A    between atoms: _342  and  _343
REMARK  141  A    between atoms: _343  and  _344
REMARK  142  A    between atoms: _348  and  _350
REMARK  143  A    between atoms: _350  and  _351
REMARK  144  A    between atoms: _350  and  _353
REMARK  145  A    between atoms: _353  and  _354
REMARK  146  A    between atoms: _354  and  _355
REMARK                            x       y       z     vdW  Elec       q    Type
REMARK                         _______ _______ _______ _____ _____    ______ ____
ROOT
ATOM      1  O   HOH     1     -20.067   6.295  44.250  0.00  0.00    +0.000 OA
ENDROOT
TORSDOF 0
REMARK  Name = ../refined-set-2016/3k5i/3k5i_pocket.pdb
REMARK  146 active torsions:
REMARK  status: ('A' for Active; 'I' for Inactive)
REMARK    1  A    between atoms: _1  and  _3
REMARK    2  A    between atoms: _3  and  _4
REMARK    3  A    between atoms: _3  and  _6
REMARK    4  A    between atoms: _6  and  _7
REMARK    5  A    between atoms: _10  and  _12
REMARK    6  A    between atoms: _12  and  _13
REMARK    7  A    between atoms: _15  and  _17
REMARK    8  A    between atoms: _17  and  _18
REMARK    9  A    between atoms: _20  and  _22
REMARK   10  A    between atoms: _22  and  _23
REMARK   11  A    between atoms: _25  and  _27
REMARK   12  A    between atoms: _27  and  _28
REMARK   13  A    between atoms: _27  and  _30
REMARK   14  A    between atoms: _30  and  _31
REMARK   15  A    between atoms: _31  and  _32
REMARK   16  A    between atoms: _37  and  _39
REMARK   17  A    between atoms: _39  and  _40
REMARK   18  A    between atoms: _39  and  _42
REMARK   19  A    between atoms: _42  and  _43
REMARK   20  A    between atoms: _46  and  _48
REMARK   21  A    between atoms: _48  and  _49
REMARK   22  A    between atoms: _51  and  _53
REMARK   23  A    between atoms: _53  and  _54
REMARK   24  A    between atoms: _53  and  _56
REMARK   25  A    between atoms: _56  and  _57
REMARK   26  A    between atoms: _57  and  _58
REMARK   27  A    between atoms: _58  and  _59
REMARK   28  A    between atoms: _68  and  _70
REMARK   29  A    between atoms: _70  and  _71
REMARK   30  A    between atoms: _70  and  _73
REMARK   31  A    between atoms: _73  and  _74
REMARK   32  A    between atoms: _74  and  _75
REMARK   33  A    between atoms: _77  and  _79
REMARK   34  A    between atoms: _79  and  _80
REMARK   35  A    between atoms: _79  and  _82
REMARK   36  A    between atoms: _82  and  _83
REMARK   37  A    between atoms: _86  and  _88
REMARK   38  A    between atoms: _88  and  _89
REMARK   39  A    between atoms: _88  and  _91
REMARK   40  A    between atoms: _91  and  _92
REMARK   41  A    between atoms: _95  and  _97
REMARK   42  A    between atoms: _97  and  _98
REMARK   43  A    between atoms: _97  and  _100
REMARK   44  A    between atoms: _100  and  _101
REMARK   45  A    between atoms: _104  and  _105
REMARK   46  A    between atoms: _110  and  _112
REMARK   47  A    between atoms: _112  and  _113
REMARK   48  A    between atoms: _116  and  _118
REMARK   49  A    between atoms: _118  and  _119
REMARK   50  A    between atoms: _118  and  _121
REMARK   51  A    between atoms: _121  and  _122
REMARK   52  A    between atoms: _128  and  _130
REMARK   53  A    between atoms: _130  and  _131
REMARK   54  A    between atoms: _134  and  _136
REMARK   55  A    between atoms: _136  and  _137
REMARK   56  A    between atoms: _136  and  _139
REMARK   57  A    between atoms: _139  and  _140
REMARK   58  A    between atoms: _140  and  _141
REMARK   59  A    between atoms: _144  and  _146
REMARK   60  A    between atoms: _146  and  _147
REMARK   61  A    between atoms: _146  and  _149
REMARK   62  A    between atoms: _149  and  _150
REMARK   63  A    between atoms: _153  and  _155
REMARK   64  A    between atoms: _155  and  _156
REMARK   65  A    between atoms: _155  and  _158
REMARK   66  A    between atoms: _158  and  _159
REMARK   67  A    between atoms: _159  and  _160
REMARK   68  A    between atoms: _163  and  _165
REMARK   69  A    between atoms: _165  and  _166
REMARK   70  A    between atoms: _165  and  _168
REMARK   71  A    between atoms: _168  and  _169
REMARK   72  A    between atoms: _174  and  _176
REMARK   73  A    between atoms: _176  and  _177
REMARK   74  A    between atoms: _180  and  _182
REMARK   75  A    between atoms: _182  and  _183
REMARK   76  A    between atoms: _182  and  _185
REMARK   77  A    between atoms: _185  and  _186
REMARK   78  A    between atoms: _186  and  _187
REMARK   79  A    between atoms: _187  and  _188
REMARK   80  A    between atoms: _197  and  _199
REMARK   81  A    between atoms: _199  and  _200
REMARK   82  A    between atoms: _199  and  _202
REMARK   83  A    between atoms: _202  and  _203
REMARK   84  A    between atoms: _206  and  _208
REMARK   85  A    between atoms: _208  and  _209
REMARK   86  A    between atoms: _208  and  _211
REMARK   87  A    between atoms: _211  and  _212
REMARK   88  A    between atoms: _217  and  _219
REMARK   89  A    between atoms: _219  and  _220
REMARK   90  A    between atoms: _219  and  _222
REMARK   91  A    between atoms: _222  and  _223
REMARK   92  A    between atoms: _228  and  _230
REMARK   93  A    between atoms: _230  and  _231
REMARK   94  A    between atoms: _230  and  _233
REMARK   95  A    between atoms: _233  and  _234
REMARK   96  A    between atoms: _239  and  _241
REMARK   97  A    between atoms: _241  and  _242
REMARK   98  A    between atoms: _241  and  _244
REMARK   99  A    between atoms: _244  and  _245
REMARK  100  A    between atoms: _251  and  _253
REMARK  101  A    between atoms: _253  and  _254
REMARK  102  A    between atoms: _253  and  _256
REMARK  103  A    between atoms: _256  and  _257
REMARK  104  A    between atoms: _262  and  _264
REMARK  105  A    between atoms: _264  and  _265
REMARK  106  A    between atoms: _267  and  _269
REMARK  107  A    between atoms: _269  and  _270
REMARK  108  A    between atoms: _269  and  _272
REMARK  109  A    between atoms: _272  and  _273
REMARK  110  A    between atoms: _278  and  _279
REMARK  111  A    between atoms: _281  and  _283
REMARK  112  A    between atoms: _283  and  _284
REMARK  113  A    between atoms: _283  and  _286
REMARK  114  A    between atoms: _286  and  _287
REMARK  115  A    between atoms: _287  and  _288
REMARK  116  A    between atoms: _288  and  _289
REMARK  117  A    between atoms: _289  and  _290
REMARK  118  A    between atoms: _294  and  _296
REMARK  119  A    between atoms: _296  and  _297
REMARK  120  A    between atoms: _300  and  _302
REMARK  121  A    between atoms: _302  and  _303
REMARK  122  A    between atoms: _302  and  _305
REMARK  123  A    between atoms: _305  and  _306
REMARK  124  A    between atoms: _306  and  _307
REMARK  125  A    between atoms: _307  and  _308
REMARK  126  A    between atoms: _308  and  _309
REMARK  127  A    between atoms: _313  and  _315
REMARK  128  A    between atoms: _315  and  _316
REMARK  129  A    between atoms: _318  and  _320
REMARK  130  A    between atoms: _320  and  _321
REMARK  131  A    between atoms: _320  and  _323
REMARK  132  A    between atoms: _323  and  _324
REMARK  133  A    between atoms: _324  and  _325
REMARK  134  A    between atoms: _325  and  _326
REMARK  135  A    between atoms: _335  and  _337
REMARK  136  A    between atoms: _337  and  _338
REMARK  137  A    between atoms: _337  and  _340
REMARK  138  A    between atoms: _340  and  _341
REMARK  139  A    between atoms: _341  and  _342
REMARK  140  A    between atoms: _342  and  _343
REMARK  141  A    between atoms: _343  and  _344
REMARK  142  A    between atoms: _348  and  _350
REMARK  143  A    between atoms: _350  and  _351
REMARK  144  A    between atoms: _350  and  _353
REMARK  145  A    between atoms: _353  and  _354
REMARK  146  A    between atoms: _354  and  _355
REMARK                            x       y       z     vdW  Elec       q    Type
REMARK                         _______ _______ _______ _____ _____    ______ ____
ROOT
ATOM      1  O   HOH     1     -21.144   4.518  42.236  0.00  0.00    +0.000 OA
ENDROOT
TORSDOF 0
REMARK  Name = ../refined-set-2016/3k5i/3k5i_pocket.pdb
REMARK  146 active torsions:
REMARK  status: ('A' for Active; 'I' for Inactive)
REMARK    1  A    between atoms: _1  and  _3
REMARK    2  A    between atoms: _3  and  _4
REMARK    3  A    between atoms: _3  and  _6
REMARK    4  A    between atoms: _6  and  _7
REMARK    5  A    between atoms: _10  and  _12
REMARK    6  A    between atoms: _12  and  _13
REMARK    7  A    between atoms: _15  and  _17
REMARK    8  A    between atoms: _17  and  _18
REMARK    9  A    between atoms: _20  and  _22
REMARK   10  A    between atoms: _22  and  _23
REMARK   11  A    between atoms: _25  and  _27
REMARK   12  A    between atoms: _27  and  _28
REMARK   13  A    between atoms: _27  and  _30
REMARK   14  A    between atoms: _30  and  _31
REMARK   15  A    between atoms: _31  and  _32
REMARK   16  A    between atoms: _37  and  _39
REMARK   17  A    between atoms: _39  and  _40
REMARK   18  A    between atoms: _39  and  _42
REMARK   19  A    between atoms: _42  and  _43
REMARK   20  A    between atoms: _46  and  _48
REMARK   21  A    between atoms: _48  and  _49
REMARK   22  A    between atoms: _51  and  _53
REMARK   23  A    between atoms: _53  and  _54
REMARK   24  A    between atoms: _53  and  _56
REMARK   25  A    between atoms: _56  and  _57
REMARK   26  A    between atoms: _57  and  _58
REMARK   27  A    between atoms: _58  and  _59
REMARK   28  A    between atoms: _68  and  _70
REMARK   29  A    between atoms: _70  and  _71
REMARK   30  A    between atoms: _70  and  _73
REMARK   31  A    between atoms: _73  and  _74
REMARK   32  A    between atoms: _74  and  _75
REMARK   33  A    between atoms: _77  and  _79
REMARK   34  A    between atoms: _79  and  _80
REMARK   35  A    between atoms: _79  and  _82
REMARK   36  A    between atoms: _82  and  _83
REMARK   37  A    between atoms: _86  and  _88
REMARK   38  A    between atoms: _88  and  _89
REMARK   39  A    between atoms: _88  and  _91
REMARK   40  A    between atoms: _91  and  _92
REMARK   41  A    between atoms: _95  and  _97
REMARK   42  A    between atoms: _97  and  _98
REMARK   43  A    between atoms: _97  and  _100
REMARK   44  A    between atoms: _100  and  _101
REMARK   45  A    between atoms: _104  and  _105
REMARK   46  A    between atoms: _110  and  _112
REMARK   47  A    between atoms: _112  and  _113
REMARK   48  A    between atoms: _116  and  _118
REMARK   49  A    between atoms: _118  and  _119
REMARK   50  A    between atoms: _118  and  _121
REMARK   51  A    between atoms: _121  and  _122
REMARK   52  A    between atoms: _128  and  _130
REMARK   53  A    between atoms: _130  and  _131
REMARK   54  A    between atoms: _134  and  _136
REMARK   55  A    between atoms: _136  and  _137
REMARK   56  A    between atoms: _136  and  _139
REMARK   57  A    between atoms: _139  and  _140
REMARK   58  A    between atoms: _140  and  _141
REMARK   59  A    between atoms: _144  and  _146
REMARK   60  A    between atoms: _146  and  _147
REMARK   61  A    between atoms: _146  and  _149
REMARK   62  A    between atoms: _149  and  _150
REMARK   63  A    between atoms: _153  and  _155
REMARK   64  A    between atoms: _155  and  _156
REMARK   65  A    between atoms: _155  and  _158
REMARK   66  A    between atoms: _158  and  _159
REMARK   67  A    between atoms: _159  and  _160
REMARK   68  A    between atoms: _163  and  _165
REMARK   69  A    between atoms: _165  and  _166
REMARK   70  A    between atoms: _165  and  _168
REMARK   71  A    between atoms: _168  and  _169
REMARK   72  A    between atoms: _174  and  _176
REMARK   73  A    between atoms: _176  and  _177
REMARK   74  A    between atoms: _180  and  _182
REMARK   75  A    between atoms: _182  and  _183
REMARK   76  A    between atoms: _182  and  _185
REMARK   77  A    between atoms: _185  and  _186
REMARK   78  A    between atoms: _186  and  _187
REMARK   79  A    between atoms: _187  and  _188
REMARK   80  A    between atoms: _197  and  _199
REMARK   81  A    between atoms: _199  and  _200
REMARK   82  A    between atoms: _199  and  _202
REMARK   83  A    between atoms: _202  and  _203
REMARK   84  A    between atoms: _206  and  _208
REMARK   85  A    between atoms: _208  and  _209
REMARK   86  A    between atoms: _208  and  _211
REMARK   87  A    between atoms: _211  and  _212
REMARK   88  A    between atoms: _217  and  _219
REMARK   89  A    between atoms: _219  and  _220
REMARK   90  A    between atoms: _219  and  _222
REMARK   91  A    between atoms: _222  and  _223
REMARK   92  A    between atoms: _228  and  _230
REMARK   93  A    between atoms: _230  and  _231
REMARK   94  A    between atoms: _230  and  _233
REMARK   95  A    between atoms: _233  and  _234
REMARK   96  A    between atoms: _239  and  _241
REMARK   97  A    between atoms: _241  and  _242
REMARK   98  A    between atoms: _241  and  _244
REMARK   99  A    between atoms: _244  and  _245
REMARK  100  A    between atoms: _251  and  _253
REMARK  101  A    between atoms: _253  and  _254
REMARK  102  A    between atoms: _253  and  _256
REMARK  103  A    between atoms: _256  and  _257
REMARK  104  A    between atoms: _262  and  _264
REMARK  105  A    between atoms: _264  and  _265
REMARK  106  A    between atoms: _267  and  _269
REMARK  107  A    between atoms: _269  and  _270
REMARK  108  A    between atoms: _269  and  _272
REMARK  109  A    between atoms: _272  and  _273
REMARK  110  A    between atoms: _278  and  _279
REMARK  111  A    between atoms: _281  and  _283
REMARK  112  A    between atoms: _283  and  _284
REMARK  113  A    between atoms: _283  and  _286
REMARK  114  A    between atoms: _286  and  _287
REMARK  115  A    between atoms: _287  and  _288
REMARK  116  A    between atoms: _288  and  _289
REMARK  117  A    between atoms: _289  and  _290
REMARK  118  A    between atoms: _294  and  _296
REMARK  119  A    between atoms: _296  and  _297
REMARK  120  A    between atoms: _300  and  _302
REMARK  121  A    between atoms: _302  and  _303
REMARK  122  A    between atoms: _302  and  _305
REMARK  123  A    between atoms: _305  and  _306
REMARK  124  A    between atoms: _306  and  _307
REMARK  125  A    between atoms: _307  and  _308
REMARK  126  A    between atoms: _308  and  _309
REMARK  127  A    between atoms: _313  and  _315
REMARK  128  A    between atoms: _315  and  _316
REMARK  129  A    between atoms: _318  and  _320
REMARK  130  A    between atoms: _320  and  _321
REMARK  131  A    between atoms: _320  and  _323
REMARK  132  A    between atoms: _323  and  _324
REMARK  133  A    between atoms: _324  and  _325
REMARK  134  A    between atoms: _325  and  _326
REMARK  135  A    between atoms: _335  and  _337
REMARK  136  A    between atoms: _337  and  _338
REMARK  137  A    between atoms: _337  and  _340
REMARK  138  A    between atoms: _340  and  _341
REMARK  139  A    between atoms: _341  and  _342
REMARK  140  A    between atoms: _342  and  _343
REMARK  141  A    between atoms: _343  and  _344
REMARK  142  A    between atoms: _348  and  _350
REMARK  143  A    between atoms: _350  and  _351
REMARK  144  A    between atoms: _350  and  _353
REMARK  145  A    between atoms: _353  and  _354
REMARK  146  A    between atoms: _354  and  _355
REMARK                            x       y       z     vdW  Elec       q    Type
REMARK                         _______ _______ _______ _____ _____    ______ ____
ROOT
ATOM      1  O   HOH     1     -17.257   6.993  44.810  0.00  0.00    +0.000 OA
ENDROOT
TORSDOF 0
REMARK  Name = ../refined-set-2016/3k5i/3k5i_pocket.pdb
REMARK  146 active torsions:
REMARK  status: ('A' for Active; 'I' for Inactive)
REMARK    1  A    between atoms: _1  and  _3
REMARK    2  A    between atoms: _3  and  _4
REMARK    3  A    between atoms: _3  and  _6
REMARK    4  A    between atoms: _6  and  _7
REMARK    5  A    between atoms: _10  and  _12
REMARK    6  A    between atoms: _12  and  _13
REMARK    7  A    between atoms: _15  and  _17
REMARK    8  A    between atoms: _17  and  _18
REMARK    9  A    between atoms: _20  and  _22
REMARK   10  A    between atoms: _22  and  _23
REMARK   11  A    between atoms: _25  and  _27
REMARK   12  A    between atoms: _27  and  _28
REMARK   13  A    between atoms: _27  and  _30
REMARK   14  A    between atoms: _30  and  _31
REMARK   15  A    between atoms: _31  and  _32
REMARK   16  A    between atoms: _37  and  _39
REMARK   17  A    between atoms: _39  and  _40
REMARK   18  A    between atoms: _39  and  _42
REMARK   19  A    between atoms: _42  and  _43
REMARK   20  A    between atoms: _46  and  _48
REMARK   21  A    between atoms: _48  and  _49
REMARK   22  A    between atoms: _51  and  _53
REMARK   23  A    between atoms: _53  and  _54
REMARK   24  A    between atoms: _53  and  _56
REMARK   25  A    between atoms: _56  and  _57
REMARK   26  A    between atoms: _57  and  _58
REMARK   27  A    between atoms: _58  and  _59
REMARK   28  A    between atoms: _68  and  _70
REMARK   29  A    between atoms: _70  and  _71
REMARK   30  A    between atoms: _70  and  _73
REMARK   31  A    between atoms: _73  and  _74
REMARK   32  A    between atoms: _74  and  _75
REMARK   33  A    between atoms: _77  and  _79
REMARK   34  A    between atoms: _79  and  _80
REMARK   35  A    between atoms: _79  and  _82
REMARK   36  A    between atoms: _82  and  _83
REMARK   37  A    between atoms: _86  and  _88
REMARK   38  A    between atoms: _88  and  _89
REMARK   39  A    between atoms: _88  and  _91
REMARK   40  A    between atoms: _91  and  _92
REMARK   41  A    between atoms: _95  and  _97
REMARK   42  A    between atoms: _97  and  _98
REMARK   43  A    between atoms: _97  and  _100
REMARK   44  A    between atoms: _100  and  _101
REMARK   45  A    between atoms: _104  and  _105
REMARK   46  A    between atoms: _110  and  _112
REMARK   47  A    between atoms: _112  and  _113
REMARK   48  A    between atoms: _116  and  _118
REMARK   49  A    between atoms: _118  and  _119
REMARK   50  A    between atoms: _118  and  _121
REMARK   51  A    between atoms: _121  and  _122
REMARK   52  A    between atoms: _128  and  _130
REMARK   53  A    between atoms: _130  and  _131
REMARK   54  A    between atoms: _134  and  _136
REMARK   55  A    between atoms: _136  and  _137
REMARK   56  A    between atoms: _136  and  _139
REMARK   57  A    between atoms: _139  and  _140
REMARK   58  A    between atoms: _140  and  _141
REMARK   59  A    between atoms: _144  and  _146
REMARK   60  A    between atoms: _146  and  _147
REMARK   61  A    between atoms: _146  and  _149
REMARK   62  A    between atoms: _149  and  _150
REMARK   63  A    between atoms: _153  and  _155
REMARK   64  A    between atoms: _155  and  _156
REMARK   65  A    between atoms: _155  and  _158
REMARK   66  A    between atoms: _158  and  _159
REMARK   67  A    between atoms: _159  and  _160
REMARK   68  A    between atoms: _163  and  _165
REMARK   69  A    between atoms: _165  and  _166
REMARK   70  A    between atoms: _165  and  _168
REMARK   71  A    between atoms: _168  and  _169
REMARK   72  A    between atoms: _174  and  _176
REMARK   73  A    between atoms: _176  and  _177
REMARK   74  A    between atoms: _180  and  _182
REMARK   75  A    between atoms: _182  and  _183
REMARK   76  A    between atoms: _182  and  _185
REMARK   77  A    between atoms: _185  and  _186
REMARK   78  A    between atoms: _186  and  _187
REMARK   79  A    between atoms: _187  and  _188
REMARK   80  A    between atoms: _197  and  _199
REMARK   81  A    between atoms: _199  and  _200
REMARK   82  A    between atoms: _199  and  _202
REMARK   83  A    between atoms: _202  and  _203
REMARK   84  A    between atoms: _206  and  _208
REMARK   85  A    between atoms: _208  and  _209
REMARK   86  A    between atoms: _208  and  _211
REMARK   87  A    between atoms: _211  and  _212
REMARK   88  A    between atoms: _217  and  _219
REMARK   89  A    between atoms: _219  and  _220
REMARK   90  A    between atoms: _219  and  _222
REMARK   91  A    between atoms: _222  and  _223
REMARK   92  A    between atoms: _228  and  _230
REMARK   93  A    between atoms: _230  and  _231
REMARK   94  A    between atoms: _230  and  _233
REMARK   95  A    between atoms: _233  and  _234
REMARK   96  A    between atoms: _239  and  _241
REMARK   97  A    between atoms: _241  and  _242
REMARK   98  A    between atoms: _241  and  _244
REMARK   99  A    between atoms: _244  and  _245
REMARK  100  A    between atoms: _251  and  _253
REMARK  101  A    between atoms: _253  and  _254
REMARK  102  A    between atoms: _253  and  _256
REMARK  103  A    between atoms: _256  and  _257
REMARK  104  A    between atoms: _262  and  _264
REMARK  105  A    between atoms: _264  and  _265
REMARK  106  A    between atoms: _267  and  _269
REMARK  107  A    between atoms: _269  and  _270
REMARK  108  A    between atoms: _269  and  _272
REMARK  109  A    between atoms: _272  and  _273
REMARK  110  A    between atoms: _278  and  _279
REMARK  111  A    between atoms: _281  and  _283
REMARK  112  A    between atoms: _283  and  _284
REMARK  113  A    between atoms: _283  and  _286
REMARK  114  A    between atoms: _286  and  _287
REMARK  115  A    between atoms: _287  and  _288
REMARK  116  A    between atoms: _288  and  _289
REMARK  117  A    between atoms: _289  and  _290
REMARK  118  A    between atoms: _294  and  _296
REMARK  119  A    between atoms: _296  and  _297
REMARK  120  A    between atoms: _300  and  _302
REMARK  121  A    between atoms: _302  and  _303
REMARK  122  A    between atoms: _302  and  _305
REMARK  123  A    between atoms: _305  and  _306
REMARK  124  A    between atoms: _306  and  _307
REMARK  125  A    between atoms: _307  and  _308
REMARK  126  A    between atoms: _308  and  _309
REMARK  127  A    between atoms: _313  and  _315
REMARK  128  A    between atoms: _315  and  _316
REMARK  129  A    between atoms: _318  and  _320
REMARK  130  A    between atoms: _320  and  _321
REMARK  131  A    between atoms: _320  and  _323
REMARK  132  A    between atoms: _323  and  _324
REMARK  133  A    between atoms: _324  and  _325
REMARK  134  A    between atoms: _325  and  _326
REMARK  135  A    between atoms: _335  and  _337
REMARK  136  A    between atoms: _337  and  _338
REMARK  137  A    between atoms: _337  and  _340
REMARK  138  A    between atoms: _340  and  _341
REMARK  139  A    between atoms: _341  and  _342
REMARK  140  A    between atoms: _342  and  _343
REMARK  141  A    between atoms: _343  and  _344
REMARK  142  A    between atoms: _348  and  _350
REMARK  143  A    between atoms: _350  and  _351
REMARK  144  A    between atoms: _350  and  _353
REMARK  145  A    between atoms: _353  and  _354
REMARK  146  A    between atoms: _354  and  _355
REMARK                            x       y       z     vdW  Elec       q    Type
REMARK                         _______ _______ _______ _____ _____    ______ ____
ROOT
ATOM      1  O   HOH     1     -20.874   8.271  48.620  0.00  0.00    +0.000 OA
ENDROOT
TORSDOF 0
REMARK  Name = ../refined-set-2016/3k5i/3k5i_pocket.pdb
REMARK  146 active torsions:
REMARK  status: ('A' for Active; 'I' for Inactive)
REMARK    1  A    between atoms: _1  and  _3
REMARK    2  A    between atoms: _3  and  _4
REMARK    3  A    between atoms: _3  and  _6
REMARK    4  A    between atoms: _6  and  _7
REMARK    5  A    between atoms: _10  and  _12
REMARK    6  A    between atoms: _12  and  _13
REMARK    7  A    between atoms: _15  and  _17
REMARK    8  A    between atoms: _17  and  _18
REMARK    9  A    between atoms: _20  and  _22
REMARK   10  A    between atoms: _22  and  _23
REMARK   11  A    between atoms: _25  and  _27
REMARK   12  A    between atoms: _27  and  _28
REMARK   13  A    between atoms: _27  and  _30
REMARK   14  A    between atoms: _30  and  _31
REMARK   15  A    between atoms: _31  and  _32
REMARK   16  A    between atoms: _37  and  _39
REMARK   17  A    between atoms: _39  and  _40
REMARK   18  A    between atoms: _39  and  _42
REMARK   19  A    between atoms: _42  and  _43
REMARK   20  A    between atoms: _46  and  _48
REMARK   21  A    between atoms: _48  and  _49
REMARK   22  A    between atoms: _51  and  _53
REMARK   23  A    between atoms: _53  and  _54
REMARK   24  A    between atoms: _53  and  _56
REMARK   25  A    between atoms: _56  and  _57
REMARK   26  A    between atoms: _57  and  _58
REMARK   27  A    between atoms: _58  and  _59
REMARK   28  A    between atoms: _68  and  _70
REMARK   29  A    between atoms: _70  and  _71
REMARK   30  A    between atoms: _70  and  _73
REMARK   31  A    between atoms: _73  and  _74
REMARK   32  A    between atoms: _74  and  _75
REMARK   33  A    between atoms: _77  and  _79
REMARK   34  A    between atoms: _79  and  _80
REMARK   35  A    between atoms: _79  and  _82
REMARK   36  A    between atoms: _82  and  _83
REMARK   37  A    between atoms: _86  and  _88
REMARK   38  A    between atoms: _88  and  _89
REMARK   39  A    between atoms: _88  and  _91
REMARK   40  A    between atoms: _91  and  _92
REMARK   41  A    between atoms: _95  and  _97
REMARK   42  A    between atoms: _97  and  _98
REMARK   43  A    between atoms: _97  and  _100
REMARK   44  A    between atoms: _100  and  _101
REMARK   45  A    between atoms: _104  and  _105
REMARK   46  A    between atoms: _110  and  _112
REMARK   47  A    between atoms: _112  and  _113
REMARK   48  A    between atoms: _116  and  _118
REMARK   49  A    between atoms: _118  and  _119
REMARK   50  A    between atoms: _118  and  _121
REMARK   51  A    between atoms: _121  and  _122
REMARK   52  A    between atoms: _128  and  _130
REMARK   53  A    between atoms: _130  and  _131
REMARK   54  A    between atoms: _134  and  _136
REMARK   55  A    between atoms: _136  and  _137
REMARK   56  A    between atoms: _136  and  _139
REMARK   57  A    between atoms: _139  and  _140
REMARK   58  A    between atoms: _140  and  _141
REMARK   59  A    between atoms: _144  and  _146
REMARK   60  A    between atoms: _146  and  _147
REMARK   61  A    between atoms: _146  and  _149
REMARK   62  A    between atoms: _149  and  _150
REMARK   63  A    between atoms: _153  and  _155
REMARK   64  A    between atoms: _155  and  _156
REMARK   65  A    between atoms: _155  and  _158
REMARK   66  A    between atoms: _158  and  _159
REMARK   67  A    between atoms: _159  and  _160
REMARK   68  A    between atoms: _163  and  _165
REMARK   69  A    between atoms: _165  and  _166
REMARK   70  A    between atoms: _165  and  _168
REMARK   71  A    between atoms: _168  and  _169
REMARK   72  A    between atoms: _174  and  _176
REMARK   73  A    between atoms: _176  and  _177
REMARK   74  A    between atoms: _180  and  _182
REMARK   75  A    between atoms: _182  and  _183
REMARK   76  A    between atoms: _182  and  _185
REMARK   77  A    between atoms: _185  and  _186
REMARK   78  A    between atoms: _186  and  _187
REMARK   79  A    between atoms: _187  and  _188
REMARK   80  A    between atoms: _197  and  _199
REMARK   81  A    between atoms: _199  and  _200
REMARK   82  A    between atoms: _199  and  _202
REMARK   83  A    between atoms: _202  and  _203
REMARK   84  A    between atoms: _206  and  _208
REMARK   85  A    between atoms: _208  and  _209
REMARK   86  A    between atoms: _208  and  _211
REMARK   87  A    between atoms: _211  and  _212
REMARK   88  A    between atoms: _217  and  _219
REMARK   89  A    between atoms: _219  and  _220
REMARK   90  A    between atoms: _219  and  _222
REMARK   91  A    between atoms: _222  and  _223
REMARK   92  A    between atoms: _228  and  _230
REMARK   93  A    between atoms: _230  and  _231
REMARK   94  A    between atoms: _230  and  _233
REMARK   95  A    between atoms: _233  and  _234
REMARK   96  A    between atoms: _239  and  _241
REMARK   97  A    between atoms: _241  and  _242
REMARK   98  A    between atoms: _241  and  _244
REMARK   99  A    between atoms: _244  and  _245
REMARK  100  A    between atoms: _251  and  _253
REMARK  101  A    between atoms: _253  and  _254
REMARK  102  A    between atoms: _253  and  _256
REMARK  103  A    between atoms: _256  and  _257
REMARK  104  A    between atoms: _262  and  _264
REMARK  105  A    between atoms: _264  and  _265
REMARK  106  A    between atoms: _267  and  _269
REMARK  107  A    between atoms: _269  and  _270
REMARK  108  A    between atoms: _269  and  _272
REMARK  109  A    between atoms: _272  and  _273
REMARK  110  A    between atoms: _278  and  _279
REMARK  111  A    between atoms: _281  and  _283
REMARK  112  A    between atoms: _283  and  _284
REMARK  113  A    between atoms: _283  and  _286
REMARK  114  A    between atoms: _286  and  _287
REMARK  115  A    between atoms: _287  and  _288
REMARK  116  A    between atoms: _288  and  _289
REMARK  117  A    between atoms: _289  and  _290
REMARK  118  A    between atoms: _294  and  _296
REMARK  119  A    between atoms: _296  and  _297
REMARK  120  A    between atoms: _300  and  _302
REMARK  121  A    between atoms: _302  and  _303
REMARK  122  A    between atoms: _302  and  _305
REMARK  123  A    between atoms: _305  and  _306
REMARK  124  A    between atoms: _306  and  _307
REMARK  125  A    between atoms: _307  and  _308
REMARK  126  A    between atoms: _308  and  _309
REMARK  127  A    between atoms: _313  and  _315
REMARK  128  A    between atoms: _315  and  _316
REMARK  129  A    between atoms: _318  and  _320
REMARK  130  A    between atoms: _320  and  _321
REMARK  131  A    between atoms: _320  and  _323
REMARK  132  A    between atoms: _323  and  _324
REMARK  133  A    between atoms: _324  and  _325
REMARK  134  A    between atoms: _325  and  _326
REMARK  135  A    between atoms: _335  and  _337
REMARK  136  A    between atoms: _337  and  _338
REMARK  137  A    between atoms: _337  and  _340
REMARK  138  A    between atoms: _340  and  _341
REMARK  139  A    between atoms: _341  and  _342
REMARK  140  A    between atoms: _342  and  _343
REMARK  141  A    between atoms: _343  and  _344
REMARK  142  A    between atoms: _348  and  _350
REMARK  143  A    between atoms: _350  and  _351
REMARK  144  A    between atoms: _350  and  _353
REMARK  145  A    between atoms: _353  and  _354
REMARK  146  A    between atoms: _354  and  _355
REMARK                            x       y       z     vdW  Elec       q    Type
REMARK                         _______ _______ _______ _____ _____    ______ ____
ROOT
ATOM      1  O   HOH     1     -27.240   3.508  45.146  0.00  0.00    +0.000 OA
ENDROOT
TORSDOF 0
REMARK  Name = ../refined-set-2016/3k5i/3k5i_pocket.pdb
REMARK  146 active torsions:
REMARK  status: ('A' for Active; 'I' for Inactive)
REMARK    1  A    between atoms: _1  and  _3
REMARK    2  A    between atoms: _3  and  _4
REMARK    3  A    between atoms: _3  and  _6
REMARK    4  A    between atoms: _6  and  _7
REMARK    5  A    between atoms: _10  and  _12
REMARK    6  A    between atoms: _12  and  _13
REMARK    7  A    between atoms: _15  and  _17
REMARK    8  A    between atoms: _17  and  _18
REMARK    9  A    between atoms: _20  and  _22
REMARK   10  A    between atoms: _22  and  _23
REMARK   11  A    between atoms: _25  and  _27
REMARK   12  A    between atoms: _27  and  _28
REMARK   13  A    between atoms: _27  and  _30
REMARK   14  A    between atoms: _30  and  _31
REMARK   15  A    between atoms: _31  and  _32
REMARK   16  A    between atoms: _37  and  _39
REMARK   17  A    between atoms: _39  and  _40
REMARK   18  A    between atoms: _39  and  _42
REMARK   19  A    between atoms: _42  and  _43
REMARK   20  A    between atoms: _46  and  _48
REMARK   21  A    between atoms: _48  and  _49
REMARK   22  A    between atoms: _51  and  _53
REMARK   23  A    between atoms: _53  and  _54
REMARK   24  A    between atoms: _53  and  _56
REMARK   25  A    between atoms: _56  and  _57
REMARK   26  A    between atoms: _57  and  _58
REMARK   27  A    between atoms: _58  and  _59
REMARK   28  A    between atoms: _68  and  _70
REMARK   29  A    between atoms: _70  and  _71
REMARK   30  A    between atoms: _70  and  _73
REMARK   31  A    between atoms: _73  and  _74
REMARK   32  A    between atoms: _74  and  _75
REMARK   33  A    between atoms: _77  and  _79
REMARK   34  A    between atoms: _79  and  _80
REMARK   35  A    between atoms: _79  and  _82
REMARK   36  A    between atoms: _82  and  _83
REMARK   37  A    between atoms: _86  and  _88
REMARK   38  A    between atoms: _88  and  _89
REMARK   39  A    between atoms: _88  and  _91
REMARK   40  A    between atoms: _91  and  _92
REMARK   41  A    between atoms: _95  and  _97
REMARK   42  A    between atoms: _97  and  _98
REMARK   43  A    between atoms: _97  and  _100
REMARK   44  A    between atoms: _100  and  _101
REMARK   45  A    between atoms: _104  and  _105
REMARK   46  A    between atoms: _110  and  _112
REMARK   47  A    between atoms: _112  and  _113
REMARK   48  A    between atoms: _116  and  _118
REMARK   49  A    between atoms: _118  and  _119
REMARK   50  A    between atoms: _118  and  _121
REMARK   51  A    between atoms: _121  and  _122
REMARK   52  A    between atoms: _128  and  _130
REMARK   53  A    between atoms: _130  and  _131
REMARK   54  A    between atoms: _134  and  _136
REMARK   55  A    between atoms: _136  and  _137
REMARK   56  A    between atoms: _136  and  _139
REMARK   57  A    between atoms: _139  and  _140
REMARK   58  A    between atoms: _140  and  _141
REMARK   59  A    between atoms: _144  and  _146
REMARK   60  A    between atoms: _146  and  _147
REMARK   61  A    between atoms: _146  and  _149
REMARK   62  A    between atoms: _149  and  _150
REMARK   63  A    between atoms: _153  and  _155
REMARK   64  A    between atoms: _155  and  _156
REMARK   65  A    between atoms: _155  and  _158
REMARK   66  A    between atoms: _158  and  _159
REMARK   67  A    between atoms: _159  and  _160
REMARK   68  A    between atoms: _163  and  _165
REMARK   69  A    between atoms: _165  and  _166
REMARK   70  A    between atoms: _165  and  _168
REMARK   71  A    between atoms: _168  and  _169
REMARK   72  A    between atoms: _174  and  _176
REMARK   73  A    between atoms: _176  and  _177
REMARK   74  A    between atoms: _180  and  _182
REMARK   75  A    between atoms: _182  and  _183
REMARK   76  A    between atoms: _182  and  _185
REMARK   77  A    between atoms: _185  and  _186
REMARK   78  A    between atoms: _186  and  _187
REMARK   79  A    between atoms: _187  and  _188
REMARK   80  A    between atoms: _197  and  _199
REMARK   81  A    between atoms: _199  and  _200
REMARK   82  A    between atoms: _199  and  _202
REMARK   83  A    between atoms: _202  and  _203
REMARK   84  A    between atoms: _206  and  _208
REMARK   85  A    between atoms: _208  and  _209
REMARK   86  A    between atoms: _208  and  _211
REMARK   87  A    between atoms: _211  and  _212
REMARK   88  A    between atoms: _217  and  _219
REMARK   89  A    between atoms: _219  and  _220
REMARK   90  A    between atoms: _219  and  _222
REMARK   91  A    between atoms: _222  and  _223
REMARK   92  A    between atoms: _228  and  _230
REMARK   93  A    between atoms: _230  and  _231
REMARK   94  A    between atoms: _230  and  _233
REMARK   95  A    between atoms: _233  and  _234
REMARK   96  A    between atoms: _239  and  _241
REMARK   97  A    between atoms: _241  and  _242
REMARK   98  A    between atoms: _241  and  _244
REMARK   99  A    between atoms: _244  and  _245
REMARK  100  A    between atoms: _251  and  _253
REMARK  101  A    between atoms: _253  and  _254
REMARK  102  A    between atoms: _253  and  _256
REMARK  103  A    between atoms: _256  and  _257
REMARK  104  A    between atoms: _262  and  _264
REMARK  105  A    between atoms: _264  and  _265
REMARK  106  A    between atoms: _267  and  _269
REMARK  107  A    between atoms: _269  and  _270
REMARK  108  A    between atoms: _269  and  _272
REMARK  109  A    between atoms: _272  and  _273
REMARK  110  A    between atoms: _278  and  _279
REMARK  111  A    between atoms: _281  and  _283
REMARK  112  A    between atoms: _283  and  _284
REMARK  113  A    between atoms: _283  and  _286
REMARK  114  A    between atoms: _286  and  _287
REMARK  115  A    between atoms: _287  and  _288
REMARK  116  A    between atoms: _288  and  _289
REMARK  117  A    between atoms: _289  and  _290
REMARK  118  A    between atoms: _294  and  _296
REMARK  119  A    between atoms: _296  and  _297
REMARK  120  A    between atoms: _300  and  _302
REMARK  121  A    between atoms: _302  and  _303
REMARK  122  A    between atoms: _302  and  _305
REMARK  123  A    between atoms: _305  and  _306
REMARK  124  A    between atoms: _306  and  _307
REMARK  125  A    between atoms: _307  and  _308
REMARK  126  A    between atoms: _308  and  _309
REMARK  127  A    between atoms: _313  and  _315
REMARK  128  A    between atoms: _315  and  _316
REMARK  129  A    between atoms: _318  and  _320
REMARK  130  A    between atoms: _320  and  _321
REMARK  131  A    between atoms: _320  and  _323
REMARK  132  A    between atoms: _323  and  _324
REMARK  133  A    between atoms: _324  and  _325
REMARK  134  A    between atoms: _325  and  _326
REMARK  135  A    between atoms: _335  and  _337
REMARK  136  A    between atoms: _337  and  _338
REMARK  137  A    between atoms: _337  and  _340
REMARK  138  A    between atoms: _340  and  _341
REMARK  139  A    between atoms: _341  and  _342
REMARK  140  A    between atoms: _342  and  _343
REMARK  141  A    between atoms: _343  and  _344
REMARK  142  A    between atoms: _348  and  _350
REMARK  143  A    between atoms: _350  and  _351
REMARK  144  A    between atoms: _350  and  _353
REMARK  145  A    between atoms: _353  and  _354
REMARK  146  A    between atoms: _354  and  _355
REMARK                            x       y       z     vdW  Elec       q    Type
REMARK                         _______ _______ _______ _____ _____    ______ ____
ROOT
ATOM      1  O   HOH     1     -28.978   5.998  38.198  0.00  0.00    +0.000 OA
ENDROOT
TORSDOF 0
REMARK  Name = ../refined-set-2016/3k5i/3k5i_pocket.pdb
REMARK  146 active torsions:
REMARK  status: ('A' for Active; 'I' for Inactive)
REMARK    1  A    between atoms: _1  and  _3
REMARK    2  A    between atoms: _3  and  _4
REMARK    3  A    between atoms: _3  and  _6
REMARK    4  A    between atoms: _6  and  _7
REMARK    5  A    between atoms: _10  and  _12
REMARK    6  A    between atoms: _12  and  _13
REMARK    7  A    between atoms: _15  and  _17
REMARK    8  A    between atoms: _17  and  _18
REMARK    9  A    between atoms: _20  and  _22
REMARK   10  A    between atoms: _22  and  _23
REMARK   11  A    between atoms: _25  and  _27
REMARK   12  A    between atoms: _27  and  _28
REMARK   13  A    between atoms: _27  and  _30
REMARK   14  A    between atoms: _30  and  _31
REMARK   15  A    between atoms: _31  and  _32
REMARK   16  A    between atoms: _37  and  _39
REMARK   17  A    between atoms: _39  and  _40
REMARK   18  A    between atoms: _39  and  _42
REMARK   19  A    between atoms: _42  and  _43
REMARK   20  A    between atoms: _46  and  _48
REMARK   21  A    between atoms: _48  and  _49
REMARK   22  A    between atoms: _51  and  _53
REMARK   23  A    between atoms: _53  and  _54
REMARK   24  A    between atoms: _53  and  _56
REMARK   25  A    between atoms: _56  and  _57
REMARK   26  A    between atoms: _57  and  _58
REMARK   27  A    between atoms: _58  and  _59
REMARK   28  A    between atoms: _68  and  _70
REMARK   29  A    between atoms: _70  and  _71
REMARK   30  A    between atoms: _70  and  _73
REMARK   31  A    between atoms: _73  and  _74
REMARK   32  A    between atoms: _74  and  _75
REMARK   33  A    between atoms: _77  and  _79
REMARK   34  A    between atoms: _79  and  _80
REMARK   35  A    between atoms: _79  and  _82
REMARK   36  A    between atoms: _82  and  _83
REMARK   37  A    between atoms: _86  and  _88
REMARK   38  A    between atoms: _88  and  _89
REMARK   39  A    between atoms: _88  and  _91
REMARK   40  A    between atoms: _91  and  _92
REMARK   41  A    between atoms: _95  and  _97
REMARK   42  A    between atoms: _97  and  _98
REMARK   43  A    between atoms: _97  and  _100
REMARK   44  A    between atoms: _100  and  _101
REMARK   45  A    between atoms: _104  and  _105
REMARK   46  A    between atoms: _110  and  _112
REMARK   47  A    between atoms: _112  and  _113
REMARK   48  A    between atoms: _116  and  _118
REMARK   49  A    between atoms: _118  and  _119
REMARK   50  A    between atoms: _118  and  _121
REMARK   51  A    between atoms: _121  and  _122
REMARK   52  A    between atoms: _128  and  _130
REMARK   53  A    between atoms: _130  and  _131
REMARK   54  A    between atoms: _134  and  _136
REMARK   55  A    between atoms: _136  and  _137
REMARK   56  A    between atoms: _136  and  _139
REMARK   57  A    between atoms: _139  and  _140
REMARK   58  A    between atoms: _140  and  _141
REMARK   59  A    between atoms: _144  and  _146
REMARK   60  A    between atoms: _146  and  _147
REMARK   61  A    between atoms: _146  and  _149
REMARK   62  A    between atoms: _149  and  _150
REMARK   63  A    between atoms: _153  and  _155
REMARK   64  A    between atoms: _155  and  _156
REMARK   65  A    between atoms: _155  and  _158
REMARK   66  A    between atoms: _158  and  _159
REMARK   67  A    between atoms: _159  and  _160
REMARK   68  A    between atoms: _163  and  _165
REMARK   69  A    between atoms: _165  and  _166
REMARK   70  A    between atoms: _165  and  _168
REMARK   71  A    between atoms: _168  and  _169
REMARK   72  A    between atoms: _174  and  _176
REMARK   73  A    between atoms: _176  and  _177
REMARK   74  A    between atoms: _180  and  _182
REMARK   75  A    between atoms: _182  and  _183
REMARK   76  A    between atoms: _182  and  _185
REMARK   77  A    between atoms: _185  and  _186
REMARK   78  A    between atoms: _186  and  _187
REMARK   79  A    between atoms: _187  and  _188
REMARK   80  A    between atoms: _197  and  _199
REMARK   81  A    between atoms: _199  and  _200
REMARK   82  A    between atoms: _199  and  _202
REMARK   83  A    between atoms: _202  and  _203
REMARK   84  A    between atoms: _206  and  _208
REMARK   85  A    between atoms: _208  and  _209
REMARK   86  A    between atoms: _208  and  _211
REMARK   87  A    between atoms: _211  and  _212
REMARK   88  A    between atoms: _217  and  _219
REMARK   89  A    between atoms: _219  and  _220
REMARK   90  A    between atoms: _219  and  _222
REMARK   91  A    between atoms: _222  and  _223
REMARK   92  A    between atoms: _228  and  _230
REMARK   93  A    between atoms: _230  and  _231
REMARK   94  A    between atoms: _230  and  _233
REMARK   95  A    between atoms: _233  and  _234
REMARK   96  A    between atoms: _239  and  _241
REMARK   97  A    between atoms: _241  and  _242
REMARK   98  A    between atoms: _241  and  _244
REMARK   99  A    between atoms: _244  and  _245
REMARK  100  A    between atoms: _251  and  _253
REMARK  101  A    between atoms: _253  and  _254
REMARK  102  A    between atoms: _253  and  _256
REMARK  103  A    between atoms: _256  and  _257
REMARK  104  A    between atoms: _262  and  _264
REMARK  105  A    between atoms: _264  and  _265
REMARK  106  A    between atoms: _267  and  _269
REMARK  107  A    between atoms: _269  and  _270
REMARK  108  A    between atoms: _269  and  _272
REMARK  109  A    between atoms: _272  and  _273
REMARK  110  A    between atoms: _278  and  _279
REMARK  111  A    between atoms: _281  and  _283
REMARK  112  A    between atoms: _283  and  _284
REMARK  113  A    between atoms: _283  and  _286
REMARK  114  A    between atoms: _286  and  _287
REMARK  115  A    between atoms: _287  and  _288
REMARK  116  A    between atoms: _288  and  _289
REMARK  117  A    between atoms: _289  and  _290
REMARK  118  A    between atoms: _294  and  _296
REMARK  119  A    between atoms: _296  and  _297
REMARK  120  A    between atoms: _300  and  _302
REMARK  121  A    between atoms: _302  and  _303
REMARK  122  A    between atoms: _302  and  _305
REMARK  123  A    between atoms: _305  and  _306
REMARK  124  A    between atoms: _306  and  _307
REMARK  125  A    between atoms: _307  and  _308
REMARK  126  A    between atoms: _308  and  _309
REMARK  127  A    between atoms: _313  and  _315
REMARK  128  A    between atoms: _315  and  _316
REMARK  129  A    between atoms: _318  and  _320
REMARK  130  A    between atoms: _320  and  _321
REMARK  131  A    between atoms: _320  and  _323
REMARK  132  A    between atoms: _323  and  _324
REMARK  133  A    between atoms: _324  and  _325
REMARK  134  A    between atoms: _325  and  _326
REMARK  135  A    between atoms: _335  and  _337
REMARK  136  A    between atoms: _337  and  _338
REMARK  137  A    between atoms: _337  and  _340
REMARK  138  A    between atoms: _340  and  _341
REMARK  139  A    between atoms: _341  and  _342
REMARK  140  A    between atoms: _342  and  _343
REMARK  141  A    between atoms: _343  and  _344
REMARK  142  A    between atoms: _348  and  _350
REMARK  143  A    between atoms: _350  and  _351
REMARK  144  A    between atoms: _350  and  _353
REMARK  145  A    between atoms: _353  and  _354
REMARK  146  A    between atoms: _354  and  _355
REMARK                            x       y       z     vdW  Elec       q    Type
REMARK                         _______ _______ _______ _____ _____    ______ ____
ROOT
ATOM      1  O   HOH     1     -20.800   0.594  45.879  0.00  0.00    +0.000 OA
ENDROOT
TORSDOF 0
REMARK  Name = ../refined-set-2016/3k5i/3k5i_pocket.pdb
REMARK  146 active torsions:
REMARK  status: ('A' for Active; 'I' for Inactive)
REMARK    1  A    between atoms: _1  and  _3
REMARK    2  A    between atoms: _3  and  _4
REMARK    3  A    between atoms: _3  and  _6
REMARK    4  A    between atoms: _6  and  _7
REMARK    5  A    between atoms: _10  and  _12
REMARK    6  A    between atoms: _12  and  _13
REMARK    7  A    between atoms: _15  and  _17
REMARK    8  A    between atoms: _17  and  _18
REMARK    9  A    between atoms: _20  and  _22
REMARK   10  A    between atoms: _22  and  _23
REMARK   11  A    between atoms: _25  and  _27
REMARK   12  A    between atoms: _27  and  _28
REMARK   13  A    between atoms: _27  and  _30
REMARK   14  A    between atoms: _30  and  _31
REMARK   15  A    between atoms: _31  and  _32
REMARK   16  A    between atoms: _37  and  _39
REMARK   17  A    between atoms: _39  and  _40
REMARK   18  A    between atoms: _39  and  _42
REMARK   19  A    between atoms: _42  and  _43
REMARK   20  A    between atoms: _46  and  _48
REMARK   21  A    between atoms: _48  and  _49
REMARK   22  A    between atoms: _51  and  _53
REMARK   23  A    between atoms: _53  and  _54
REMARK   24  A    between atoms: _53  and  _56
REMARK   25  A    between atoms: _56  and  _57
REMARK   26  A    between atoms: _57  and  _58
REMARK   27  A    between atoms: _58  and  _59
REMARK   28  A    between atoms: _68  and  _70
REMARK   29  A    between atoms: _70  and  _71
REMARK   30  A    between atoms: _70  and  _73
REMARK   31  A    between atoms: _73  and  _74
REMARK   32  A    between atoms: _74  and  _75
REMARK   33  A    between atoms: _77  and  _79
REMARK   34  A    between atoms: _79  and  _80
REMARK   35  A    between atoms: _79  and  _82
REMARK   36  A    between atoms: _82  and  _83
REMARK   37  A    between atoms: _86  and  _88
REMARK   38  A    between atoms: _88  and  _89
REMARK   39  A    between atoms: _88  and  _91
REMARK   40  A    between atoms: _91  and  _92
REMARK   41  A    between atoms: _95  and  _97
REMARK   42  A    between atoms: _97  and  _98
REMARK   43  A    between atoms: _97  and  _100
REMARK   44  A    between atoms: _100  and  _101
REMARK   45  A    between atoms: _104  and  _105
REMARK   46  A    between atoms: _110  and  _112
REMARK   47  A    between atoms: _112  and  _113
REMARK   48  A    between atoms: _116  and  _118
REMARK   49  A    between atoms: _118  and  _119
REMARK   50  A    between atoms: _118  and  _121
REMARK   51  A    between atoms: _121  and  _122
REMARK   52  A    between atoms: _128  and  _130
REMARK   53  A    between atoms: _130  and  _131
REMARK   54  A    between atoms: _134  and  _136
REMARK   55  A    between atoms: _136  and  _137
REMARK   56  A    between atoms: _136  and  _139
REMARK   57  A    between atoms: _139  and  _140
REMARK   58  A    between atoms: _140  and  _141
REMARK   59  A    between atoms: _144  and  _146
REMARK   60  A    between atoms: _146  and  _147
REMARK   61  A    between atoms: _146  and  _149
REMARK   62  A    between atoms: _149  and  _150
REMARK   63  A    between atoms: _153  and  _155
REMARK   64  A    between atoms: _155  and  _156
REMARK   65  A    between atoms: _155  and  _158
REMARK   66  A    between atoms: _158  and  _159
REMARK   67  A    between atoms: _159  and  _160
REMARK   68  A    between atoms: _163  and  _165
REMARK   69  A    between atoms: _165  and  _166
REMARK   70  A    between atoms: _165  and  _168
REMARK   71  A    between atoms: _168  and  _169
REMARK   72  A    between atoms: _174  and  _176
REMARK   73  A    between atoms: _176  and  _177
REMARK   74  A    between atoms: _180  and  _182
REMARK   75  A    between atoms: _182  and  _183
REMARK   76  A    between atoms: _182  and  _185
REMARK   77  A    between atoms: _185  and  _186
REMARK   78  A    between atoms: _186  and  _187
REMARK   79  A    between atoms: _187  and  _188
REMARK   80  A    between atoms: _197  and  _199
REMARK   81  A    between atoms: _199  and  _200
REMARK   82  A    between atoms: _199  and  _202
REMARK   83  A    between atoms: _202  and  _203
REMARK   84  A    between atoms: _206  and  _208
REMARK   85  A    between atoms: _208  and  _209
REMARK   86  A    between atoms: _208  and  _211
REMARK   87  A    between atoms: _211  and  _212
REMARK   88  A    between atoms: _217  and  _219
REMARK   89  A    between atoms: _219  and  _220
REMARK   90  A    between atoms: _219  and  _222
REMARK   91  A    between atoms: _222  and  _223
REMARK   92  A    between atoms: _228  and  _230
REMARK   93  A    between atoms: _230  and  _231
REMARK   94  A    between atoms: _230  and  _233
REMARK   95  A    between atoms: _233  and  _234
REMARK   96  A    between atoms: _239  and  _241
REMARK   97  A    between atoms: _241  and  _242
REMARK   98  A    between atoms: _241  and  _244
REMARK   99  A    between atoms: _244  and  _245
REMARK  100  A    between atoms: _251  and  _253
REMARK  101  A    between atoms: _253  and  _254
REMARK  102  A    between atoms: _253  and  _256
REMARK  103  A    between atoms: _256  and  _257
REMARK  104  A    between atoms: _262  and  _264
REMARK  105  A    between atoms: _264  and  _265
REMARK  106  A    between atoms: _267  and  _269
REMARK  107  A    between atoms: _269  and  _270
REMARK  108  A    between atoms: _269  and  _272
REMARK  109  A    between atoms: _272  and  _273
REMARK  110  A    between atoms: _278  and  _279
REMARK  111  A    between atoms: _281  and  _283
REMARK  112  A    between atoms: _283  and  _284
REMARK  113  A    between atoms: _283  and  _286
REMARK  114  A    between atoms: _286  and  _287
REMARK  115  A    between atoms: _287  and  _288
REMARK  116  A    between atoms: _288  and  _289
REMARK  117  A    between atoms: _289  and  _290
REMARK  118  A    between atoms: _294  and  _296
REMARK  119  A    between atoms: _296  and  _297
REMARK  120  A    between atoms: _300  and  _302
REMARK  121  A    between atoms: _302  and  _303
REMARK  122  A    between atoms: _302  and  _305
REMARK  123  A    between atoms: _305  and  _306
REMARK  124  A    between atoms: _306  and  _307
REMARK  125  A    between atoms: _307  and  _308
REMARK  126  A    between atoms: _308  and  _309
REMARK  127  A    between atoms: _313  and  _315
REMARK  128  A    between atoms: _315  and  _316
REMARK  129  A    between atoms: _318  and  _320
REMARK  130  A    between atoms: _320  and  _321
REMARK  131  A    between atoms: _320  and  _323
REMARK  132  A    between atoms: _323  and  _324
REMARK  133  A    between atoms: _324  and  _325
REMARK  134  A    between atoms: _325  and  _326
REMARK  135  A    between atoms: _335  and  _337
REMARK  136  A    between atoms: _337  and  _338
REMARK  137  A    between atoms: _337  and  _340
REMARK  138  A    between atoms: _340  and  _341
REMARK  139  A    between atoms: _341  and  _342
REMARK  140  A    between atoms: _342  and  _343
REMARK  141  A    between atoms: _343  and  _344
REMARK  142  A    between atoms: _348  and  _350
REMARK  143  A    between atoms: _350  and  _351
REMARK  144  A    between atoms: _350  and  _353
REMARK  145  A    between atoms: _353  and  _354
REMARK  146  A    between atoms: _354  and  _355
REMARK                            x       y       z     vdW  Elec       q    Type
REMARK                         _______ _______ _______ _____ _____    ______ ____
ROOT
ATOM      1  O   HOH     1     -24.772   1.626  40.596  0.00  0.00    +0.000 OA
ENDROOT
TORSDOF 0
REMARK  Name = ../refined-set-2016/3k5i/3k5i_pocket.pdb
REMARK  146 active torsions:
REMARK  status: ('A' for Active; 'I' for Inactive)
REMARK    1  A    between atoms: _1  and  _3
REMARK    2  A    between atoms: _3  and  _4
REMARK    3  A    between atoms: _3  and  _6
REMARK    4  A    between atoms: _6  and  _7
REMARK    5  A    between atoms: _10  and  _12
REMARK    6  A    between atoms: _12  and  _13
REMARK    7  A    between atoms: _15  and  _17
REMARK    8  A    between atoms: _17  and  _18
REMARK    9  A    between atoms: _20  and  _22
REMARK   10  A    between atoms: _22  and  _23
REMARK   11  A    between atoms: _25  and  _27
REMARK   12  A    between atoms: _27  and  _28
REMARK   13  A    between atoms: _27  and  _30
REMARK   14  A    between atoms: _30  and  _31
REMARK   15  A    between atoms: _31  and  _32
REMARK   16  A    between atoms: _37  and  _39
REMARK   17  A    between atoms: _39  and  _40
REMARK   18  A    between atoms: _39  and  _42
REMARK   19  A    between atoms: _42  and  _43
REMARK   20  A    between atoms: _46  and  _48
REMARK   21  A    between atoms: _48  and  _49
REMARK   22  A    between atoms: _51  and  _53
REMARK   23  A    between atoms: _53  and  _54
REMARK   24  A    between atoms: _53  and  _56
REMARK   25  A    between atoms: _56  and  _57
REMARK   26  A    between atoms: _57  and  _58
REMARK   27  A    between atoms: _58  and  _59
REMARK   28  A    between atoms: _68  and  _70
REMARK   29  A    between atoms: _70  and  _71
REMARK   30  A    between atoms: _70  and  _73
REMARK   31  A    between atoms: _73  and  _74
REMARK   32  A    between atoms: _74  and  _75
REMARK   33  A    between atoms: _77  and  _79
REMARK   34  A    between atoms: _79  and  _80
REMARK   35  A    between atoms: _79  and  _82
REMARK   36  A    between atoms: _82  and  _83
REMARK   37  A    between atoms: _86  and  _88
REMARK   38  A    between atoms: _88  and  _89
REMARK   39  A    between atoms: _88  and  _91
REMARK   40  A    between atoms: _91  and  _92
REMARK   41  A    between atoms: _95  and  _97
REMARK   42  A    between atoms: _97  and  _98
REMARK   43  A    between atoms: _97  and  _100
REMARK   44  A    between atoms: _100  and  _101
REMARK   45  A    between atoms: _104  and  _105
REMARK   46  A    between atoms: _110  and  _112
REMARK   47  A    between atoms: _112  and  _113
REMARK   48  A    between atoms: _116  and  _118
REMARK   49  A    between atoms: _118  and  _119
REMARK   50  A    between atoms: _118  and  _121
REMARK   51  A    between atoms: _121  and  _122
REMARK   52  A    between atoms: _128  and  _130
REMARK   53  A    between atoms: _130  and  _131
REMARK   54  A    between atoms: _134  and  _136
REMARK   55  A    between atoms: _136  and  _137
REMARK   56  A    between atoms: _136  and  _139
REMARK   57  A    between atoms: _139  and  _140
REMARK   58  A    between atoms: _140  and  _141
REMARK   59  A    between atoms: _144  and  _146
REMARK   60  A    between atoms: _146  and  _147
REMARK   61  A    between atoms: _146  and  _149
REMARK   62  A    between atoms: _149  and  _150
REMARK   63  A    between atoms: _153  and  _155
REMARK   64  A    between atoms: _155  and  _156
REMARK   65  A    between atoms: _155  and  _158
REMARK   66  A    between atoms: _158  and  _159
REMARK   67  A    between atoms: _159  and  _160
REMARK   68  A    between atoms: _163  and  _165
REMARK   69  A    between atoms: _165  and  _166
REMARK   70  A    between atoms: _165  and  _168
REMARK   71  A    between atoms: _168  and  _169
REMARK   72  A    between atoms: _174  and  _176
REMARK   73  A    between atoms: _176  and  _177
REMARK   74  A    between atoms: _180  and  _182
REMARK   75  A    between atoms: _182  and  _183
REMARK   76  A    between atoms: _182  and  _185
REMARK   77  A    between atoms: _185  and  _186
REMARK   78  A    between atoms: _186  and  _187
REMARK   79  A    between atoms: _187  and  _188
REMARK   80  A    between atoms: _197  and  _199
REMARK   81  A    between atoms: _199  and  _200
REMARK   82  A    between atoms: _199  and  _202
REMARK   83  A    between atoms: _202  and  _203
REMARK   84  A    between atoms: _206  and  _208
REMARK   85  A    between atoms: _208  and  _209
REMARK   86  A    between atoms: _208  and  _211
REMARK   87  A    between atoms: _211  and  _212
REMARK   88  A    between atoms: _217  and  _219
REMARK   89  A    between atoms: _219  and  _220
REMARK   90  A    between atoms: _219  and  _222
REMARK   91  A    between atoms: _222  and  _223
REMARK   92  A    between atoms: _228  and  _230
REMARK   93  A    between atoms: _230  and  _231
REMARK   94  A    between atoms: _230  and  _233
REMARK   95  A    between atoms: _233  and  _234
REMARK   96  A    between atoms: _239  and  _241
REMARK   97  A    between atoms: _241  and  _242
REMARK   98  A    between atoms: _241  and  _244
REMARK   99  A    between atoms: _244  and  _245
REMARK  100  A    between atoms: _251  and  _253
REMARK  101  A    between atoms: _253  and  _254
REMARK  102  A    between atoms: _253  and  _256
REMARK  103  A    between atoms: _256  and  _257
REMARK  104  A    between atoms: _262  and  _264
REMARK  105  A    between atoms: _264  and  _265
REMARK  106  A    between atoms: _267  and  _269
REMARK  107  A    between atoms: _269  and  _270
REMARK  108  A    between atoms: _269  and  _272
REMARK  109  A    between atoms: _272  and  _273
REMARK  110  A    between atoms: _278  and  _279
REMARK  111  A    between atoms: _281  and  _283
REMARK  112  A    between atoms: _283  and  _284
REMARK  113  A    between atoms: _283  and  _286
REMARK  114  A    between atoms: _286  and  _287
REMARK  115  A    between atoms: _287  and  _288
REMARK  116  A    between atoms: _288  and  _289
REMARK  117  A    between atoms: _289  and  _290
REMARK  118  A    between atoms: _294  and  _296
REMARK  119  A    between atoms: _296  and  _297
REMARK  120  A    between atoms: _300  and  _302
REMARK  121  A    between atoms: _302  and  _303
REMARK  122  A    between atoms: _302  and  _305
REMARK  123  A    between atoms: _305  and  _306
REMARK  124  A    between atoms: _306  and  _307
REMARK  125  A    between atoms: _307  and  _308
REMARK  126  A    between atoms: _308  and  _309
REMARK  127  A    between atoms: _313  and  _315
REMARK  128  A    between atoms: _315  and  _316
REMARK  129  A    between atoms: _318  and  _320
REMARK  130  A    between atoms: _320  and  _321
REMARK  131  A    between atoms: _320  and  _323
REMARK  132  A    between atoms: _323  and  _324
REMARK  133  A    between atoms: _324  and  _325
REMARK  134  A    between atoms: _325  and  _326
REMARK  135  A    between atoms: _335  and  _337
REMARK  136  A    between atoms: _337  and  _338
REMARK  137  A    between atoms: _337  and  _340
REMARK  138  A    between atoms: _340  and  _341
REMARK  139  A    between atoms: _341  and  _342
REMARK  140  A    between atoms: _342  and  _343
REMARK  141  A    between atoms: _343  and  _344
REMARK  142  A    between atoms: _348  and  _350
REMARK  143  A    between atoms: _350  and  _351
REMARK  144  A    between atoms: _350  and  _353
REMARK  145  A    between atoms: _353  and  _354
REMARK  146  A    between atoms: _354  and  _355
REMARK                            x       y       z     vdW  Elec       q    Type
REMARK                         _______ _______ _______ _____ _____    ______ ____
ROOT
ATOM      1  O   HOH     1     -22.265   2.304  42.904  0.00  0.00    +0.000 OA
ENDROOT
TORSDOF 0
REMARK  Name = ../refined-set-2016/3k5i/3k5i_pocket.pdb
REMARK  146 active torsions:
REMARK  status: ('A' for Active; 'I' for Inactive)
REMARK    1  A    between atoms: _1  and  _3
REMARK    2  A    between atoms: _3  and  _4
REMARK    3  A    between atoms: _3  and  _6
REMARK    4  A    between atoms: _6  and  _7
REMARK    5  A    between atoms: _10  and  _12
REMARK    6  A    between atoms: _12  and  _13
REMARK    7  A    between atoms: _15  and  _17
REMARK    8  A    between atoms: _17  and  _18
REMARK    9  A    between atoms: _20  and  _22
REMARK   10  A    between atoms: _22  and  _23
REMARK   11  A    between atoms: _25  and  _27
REMARK   12  A    between atoms: _27  and  _28
REMARK   13  A    between atoms: _27  and  _30
REMARK   14  A    between atoms: _30  and  _31
REMARK   15  A    between atoms: _31  and  _32
REMARK   16  A    between atoms: _37  and  _39
REMARK   17  A    between atoms: _39  and  _40
REMARK   18  A    between atoms: _39  and  _42
REMARK   19  A    between atoms: _42  and  _43
REMARK   20  A    between atoms: _46  and  _48
REMARK   21  A    between atoms: _48  and  _49
REMARK   22  A    between atoms: _51  and  _53
REMARK   23  A    between atoms: _53  and  _54
REMARK   24  A    between atoms: _53  and  _56
REMARK   25  A    between atoms: _56  and  _57
REMARK   26  A    between atoms: _57  and  _58
REMARK   27  A    between atoms: _58  and  _59
REMARK   28  A    between atoms: _68  and  _70
REMARK   29  A    between atoms: _70  and  _71
REMARK   30  A    between atoms: _70  and  _73
REMARK   31  A    between atoms: _73  and  _74
REMARK   32  A    between atoms: _74  and  _75
REMARK   33  A    between atoms: _77  and  _79
REMARK   34  A    between atoms: _79  and  _80
REMARK   35  A    between atoms: _79  and  _82
REMARK   36  A    between atoms: _82  and  _83
REMARK   37  A    between atoms: _86  and  _88
REMARK   38  A    between atoms: _88  and  _89
REMARK   39  A    between atoms: _88  and  _91
REMARK   40  A    between atoms: _91  and  _92
REMARK   41  A    between atoms: _95  and  _97
REMARK   42  A    between atoms: _97  and  _98
REMARK   43  A    between atoms: _97  and  _100
REMARK   44  A    between atoms: _100  and  _101
REMARK   45  A    between atoms: _104  and  _105
REMARK   46  A    between atoms: _110  and  _112
REMARK   47  A    between atoms: _112  and  _113
REMARK   48  A    between atoms: _116  and  _118
REMARK   49  A    between atoms: _118  and  _119
REMARK   50  A    between atoms: _118  and  _121
REMARK   51  A    between atoms: _121  and  _122
REMARK   52  A    between atoms: _128  and  _130
REMARK   53  A    between atoms: _130  and  _131
REMARK   54  A    between atoms: _134  and  _136
REMARK   55  A    between atoms: _136  and  _137
REMARK   56  A    between atoms: _136  and  _139
REMARK   57  A    between atoms: _139  and  _140
REMARK   58  A    between atoms: _140  and  _141
REMARK   59  A    between atoms: _144  and  _146
REMARK   60  A    between atoms: _146  and  _147
REMARK   61  A    between atoms: _146  and  _149
REMARK   62  A    between atoms: _149  and  _150
REMARK   63  A    between atoms: _153  and  _155
REMARK   64  A    between atoms: _155  and  _156
REMARK   65  A    between atoms: _155  and  _158
REMARK   66  A    between atoms: _158  and  _159
REMARK   67  A    between atoms: _159  and  _160
REMARK   68  A    between atoms: _163  and  _165
REMARK   69  A    between atoms: _165  and  _166
REMARK   70  A    between atoms: _165  and  _168
REMARK   71  A    between atoms: _168  and  _169
REMARK   72  A    between atoms: _174  and  _176
REMARK   73  A    between atoms: _176  and  _177
REMARK   74  A    between atoms: _180  and  _182
REMARK   75  A    between atoms: _182  and  _183
REMARK   76  A    between atoms: _182  and  _185
REMARK   77  A    between atoms: _185  and  _186
REMARK   78  A    between atoms: _186  and  _187
REMARK   79  A    between atoms: _187  and  _188
REMARK   80  A    between atoms: _197  and  _199
REMARK   81  A    between atoms: _199  and  _200
REMARK   82  A    between atoms: _199  and  _202
REMARK   83  A    between atoms: _202  and  _203
REMARK   84  A    between atoms: _206  and  _208
REMARK   85  A    between atoms: _208  and  _209
REMARK   86  A    between atoms: _208  and  _211
REMARK   87  A    between atoms: _211  and  _212
REMARK   88  A    between atoms: _217  and  _219
REMARK   89  A    between atoms: _219  and  _220
REMARK   90  A    between atoms: _219  and  _222
REMARK   91  A    between atoms: _222  and  _223
REMARK   92  A    between atoms: _228  and  _230
REMARK   93  A    between atoms: _230  and  _231
REMARK   94  A    between atoms: _230  and  _233
REMARK   95  A    between atoms: _233  and  _234
REMARK   96  A    between atoms: _239  and  _241
REMARK   97  A    between atoms: _241  and  _242
REMARK   98  A    between atoms: _241  and  _244
REMARK   99  A    between atoms: _244  and  _245
REMARK  100  A    between atoms: _251  and  _253
REMARK  101  A    between atoms: _253  and  _254
REMARK  102  A    between atoms: _253  and  _256
REMARK  103  A    between atoms: _256  and  _257
REMARK  104  A    between atoms: _262  and  _264
REMARK  105  A    between atoms: _264  and  _265
REMARK  106  A    between atoms: _267  and  _269
REMARK  107  A    between atoms: _269  and  _270
REMARK  108  A    between atoms: _269  and  _272
REMARK  109  A    between atoms: _272  and  _273
REMARK  110  A    between atoms: _278  and  _279
REMARK  111  A    between atoms: _281  and  _283
REMARK  112  A    between atoms: _283  and  _284
REMARK  113  A    between atoms: _283  and  _286
REMARK  114  A    between atoms: _286  and  _287
REMARK  115  A    between atoms: _287  and  _288
REMARK  116  A    between atoms: _288  and  _289
REMARK  117  A    between atoms: _289  and  _290
REMARK  118  A    between atoms: _294  and  _296
REMARK  119  A    between atoms: _296  and  _297
REMARK  120  A    between atoms: _300  and  _302
REMARK  121  A    between atoms: _302  and  _303
REMARK  122  A    between atoms: _302  and  _305
REMARK  123  A    between atoms: _305  and  _306
REMARK  124  A    between atoms: _306  and  _307
REMARK  125  A    between atoms: _307  and  _308
REMARK  126  A    between atoms: _308  and  _309
REMARK  127  A    between atoms: _313  and  _315
REMARK  128  A    between atoms: _315  and  _316
REMARK  129  A    between atoms: _318  and  _320
REMARK  130  A    between atoms: _320  and  _321
REMARK  131  A    between atoms: _320  and  _323
REMARK  132  A    between atoms: _323  and  _324
REMARK  133  A    between atoms: _324  and  _325
REMARK  134  A    between atoms: _325  and  _326
REMARK  135  A    between atoms: _335  and  _337
REMARK  136  A    between atoms: _337  and  _338
REMARK  137  A    between atoms: _337  and  _340
REMARK  138  A    between atoms: _340  and  _341
REMARK  139  A    between atoms: _341  and  _342
REMARK  140  A    between atoms: _342  and  _343
REMARK  141  A    between atoms: _343  and  _344
REMARK  142  A    between atoms: _348  and  _350
REMARK  143  A    between atoms: _350  and  _351
REMARK  144  A    between atoms: _350  and  _353
REMARK  145  A    between atoms: _353  and  _354
REMARK  146  A    between atoms: _354  and  _355
REMARK                            x       y       z     vdW  Elec       q    Type
REMARK                         _______ _______ _______ _____ _____    ______ ____
ROOT
ATOM      1  O   HOH     1     -23.683  17.674  51.036  0.00  0.00    +0.000 OA
ENDROOT
TORSDOF 0
REMARK  Name = ../refined-set-2016/3k5i/3k5i_pocket.pdb
REMARK  146 active torsions:
REMARK  status: ('A' for Active; 'I' for Inactive)
REMARK    1  A    between atoms: _1  and  _3
REMARK    2  A    between atoms: _3  and  _4
REMARK    3  A    between atoms: _3  and  _6
REMARK    4  A    between atoms: _6  and  _7
REMARK    5  A    between atoms: _10  and  _12
REMARK    6  A    between atoms: _12  and  _13
REMARK    7  A    between atoms: _15  and  _17
REMARK    8  A    between atoms: _17  and  _18
REMARK    9  A    between atoms: _20  and  _22
REMARK   10  A    between atoms: _22  and  _23
REMARK   11  A    between atoms: _25  and  _27
REMARK   12  A    between atoms: _27  and  _28
REMARK   13  A    between atoms: _27  and  _30
REMARK   14  A    between atoms: _30  and  _31
REMARK   15  A    between atoms: _31  and  _32
REMARK   16  A    between atoms: _37  and  _39
REMARK   17  A    between atoms: _39  and  _40
REMARK   18  A    between atoms: _39  and  _42
REMARK   19  A    between atoms: _42  and  _43
REMARK   20  A    between atoms: _46  and  _48
REMARK   21  A    between atoms: _48  and  _49
REMARK   22  A    between atoms: _51  and  _53
REMARK   23  A    between atoms: _53  and  _54
REMARK   24  A    between atoms: _53  and  _56
REMARK   25  A    between atoms: _56  and  _57
REMARK   26  A    between atoms: _57  and  _58
REMARK   27  A    between atoms: _58  and  _59
REMARK   28  A    between atoms: _68  and  _70
REMARK   29  A    between atoms: _70  and  _71
REMARK   30  A    between atoms: _70  and  _73
REMARK   31  A    between atoms: _73  and  _74
REMARK   32  A    between atoms: _74  and  _75
REMARK   33  A    between atoms: _77  and  _79
REMARK   34  A    between atoms: _79  and  _80
REMARK   35  A    between atoms: _79  and  _82
REMARK   36  A    between atoms: _82  and  _83
REMARK   37  A    between atoms: _86  and  _88
REMARK   38  A    between atoms: _88  and  _89
REMARK   39  A    between atoms: _88  and  _91
REMARK   40  A    between atoms: _91  and  _92
REMARK   41  A    between atoms: _95  and  _97
REMARK   42  A    between atoms: _97  and  _98
REMARK   43  A    between atoms: _97  and  _100
REMARK   44  A    between atoms: _100  and  _101
REMARK   45  A    between atoms: _104  and  _105
REMARK   46  A    between atoms: _110  and  _112
REMARK   47  A    between atoms: _112  and  _113
REMARK   48  A    between atoms: _116  and  _118
REMARK   49  A    between atoms: _118  and  _119
REMARK   50  A    between atoms: _118  and  _121
REMARK   51  A    between atoms: _121  and  _122
REMARK   52  A    between atoms: _128  and  _130
REMARK   53  A    between atoms: _130  and  _131
REMARK   54  A    between atoms: _134  and  _136
REMARK   55  A    between atoms: _136  and  _137
REMARK   56  A    between atoms: _136  and  _139
REMARK   57  A    between atoms: _139  and  _140
REMARK   58  A    between atoms: _140  and  _141
REMARK   59  A    between atoms: _144  and  _146
REMARK   60  A    between atoms: _146  and  _147
REMARK   61  A    between atoms: _146  and  _149
REMARK   62  A    between atoms: _149  and  _150
REMARK   63  A    between atoms: _153  and  _155
REMARK   64  A    between atoms: _155  and  _156
REMARK   65  A    between atoms: _155  and  _158
REMARK   66  A    between atoms: _158  and  _159
REMARK   67  A    between atoms: _159  and  _160
REMARK   68  A    between atoms: _163  and  _165
REMARK   69  A    between atoms: _165  and  _166
REMARK   70  A    between atoms: _165  and  _168
REMARK   71  A    between atoms: _168  and  _169
REMARK   72  A    between atoms: _174  and  _176
REMARK   73  A    between atoms: _176  and  _177
REMARK   74  A    between atoms: _180  and  _182
REMARK   75  A    between atoms: _182  and  _183
REMARK   76  A    between atoms: _182  and  _185
REMARK   77  A    between atoms: _185  and  _186
REMARK   78  A    between atoms: _186  and  _187
REMARK   79  A    between atoms: _187  and  _188
REMARK   80  A    between atoms: _197  and  _199
REMARK   81  A    between atoms: _199  and  _200
REMARK   82  A    between atoms: _199  and  _202
REMARK   83  A    between atoms: _202  and  _203
REMARK   84  A    between atoms: _206  and  _208
REMARK   85  A    between atoms: _208  and  _209
REMARK   86  A    between atoms: _208  and  _211
REMARK   87  A    between atoms: _211  and  _212
REMARK   88  A    between atoms: _217  and  _219
REMARK   89  A    between atoms: _219  and  _220
REMARK   90  A    between atoms: _219  and  _222
REMARK   91  A    between atoms: _222  and  _223
REMARK   92  A    between atoms: _228  and  _230
REMARK   93  A    between atoms: _230  and  _231
REMARK   94  A    between atoms: _230  and  _233
REMARK   95  A    between atoms: _233  and  _234
REMARK   96  A    between atoms: _239  and  _241
REMARK   97  A    between atoms: _241  and  _242
REMARK   98  A    between atoms: _241  and  _244
REMARK   99  A    between atoms: _244  and  _245
REMARK  100  A    between atoms: _251  and  _253
REMARK  101  A    between atoms: _253  and  _254
REMARK  102  A    between atoms: _253  and  _256
REMARK  103  A    between atoms: _256  and  _257
REMARK  104  A    between atoms: _262  and  _264
REMARK  105  A    between atoms: _264  and  _265
REMARK  106  A    between atoms: _267  and  _269
REMARK  107  A    between atoms: _269  and  _270
REMARK  108  A    between atoms: _269  and  _272
REMARK  109  A    between atoms: _272  and  _273
REMARK  110  A    between atoms: _278  and  _279
REMARK  111  A    between atoms: _281  and  _283
REMARK  112  A    between atoms: _283  and  _284
REMARK  113  A    between atoms: _283  and  _286
REMARK  114  A    between atoms: _286  and  _287
REMARK  115  A    between atoms: _287  and  _288
REMARK  116  A    between atoms: _288  and  _289
REMARK  117  A    between atoms: _289  and  _290
REMARK  118  A    between atoms: _294  and  _296
REMARK  119  A    between atoms: _296  and  _297
REMARK  120  A    between atoms: _300  and  _302
REMARK  121  A    between atoms: _302  and  _303
REMARK  122  A    between atoms: _302  and  _305
REMARK  123  A    between atoms: _305  and  _306
REMARK  124  A    between atoms: _306  and  _307
REMARK  125  A    between atoms: _307  and  _308
REMARK  126  A    between atoms: _308  and  _309
REMARK  127  A    between atoms: _313  and  _315
REMARK  128  A    between atoms: _315  and  _316
REMARK  129  A    between atoms: _318  and  _320
REMARK  130  A    between atoms: _320  and  _321
REMARK  131  A    between atoms: _320  and  _323
REMARK  132  A    between atoms: _323  and  _324
REMARK  133  A    between atoms: _324  and  _325
REMARK  134  A    between atoms: _325  and  _326
REMARK  135  A    between atoms: _335  and  _337
REMARK  136  A    between atoms: _337  and  _338
REMARK  137  A    between atoms: _337  and  _340
REMARK  138  A    between atoms: _340  and  _341
REMARK  139  A    between atoms: _341  and  _342
REMARK  140  A    between atoms: _342  and  _343
REMARK  141  A    between atoms: _343  and  _344
REMARK  142  A    between atoms: _348  and  _350
REMARK  143  A    between atoms: _350  and  _351
REMARK  144  A    between atoms: _350  and  _353
REMARK  145  A    between atoms: _353  and  _354
REMARK  146  A    between atoms: _354  and  _355
REMARK                            x       y       z     vdW  Elec       q    Type
REMARK                         _______ _______ _______ _____ _____    ______ ____
ROOT
ATOM      1  O   HOH     1     -20.351  14.766  50.116  0.00  0.00    +0.000 OA
ENDROOT
TORSDOF 0
REMARK  Name = ../refined-set-2016/3k5i/3k5i_pocket.pdb
REMARK  146 active torsions:
REMARK  status: ('A' for Active; 'I' for Inactive)
REMARK    1  A    between atoms: _1  and  _3
REMARK    2  A    between atoms: _3  and  _4
REMARK    3  A    between atoms: _3  and  _6
REMARK    4  A    between atoms: _6  and  _7
REMARK    5  A    between atoms: _10  and  _12
REMARK    6  A    between atoms: _12  and  _13
REMARK    7  A    between atoms: _15  and  _17
REMARK    8  A    between atoms: _17  and  _18
REMARK    9  A    between atoms: _20  and  _22
REMARK   10  A    between atoms: _22  and  _23
REMARK   11  A    between atoms: _25  and  _27
REMARK   12  A    between atoms: _27  and  _28
REMARK   13  A    between atoms: _27  and  _30
REMARK   14  A    between atoms: _30  and  _31
REMARK   15  A    between atoms: _31  and  _32
REMARK   16  A    between atoms: _37  and  _39
REMARK   17  A    between atoms: _39  and  _40
REMARK   18  A    between atoms: _39  and  _42
REMARK   19  A    between atoms: _42  and  _43
REMARK   20  A    between atoms: _46  and  _48
REMARK   21  A    between atoms: _48  and  _49
REMARK   22  A    between atoms: _51  and  _53
REMARK   23  A    between atoms: _53  and  _54
REMARK   24  A    between atoms: _53  and  _56
REMARK   25  A    between atoms: _56  and  _57
REMARK   26  A    between atoms: _57  and  _58
REMARK   27  A    between atoms: _58  and  _59
REMARK   28  A    between atoms: _68  and  _70
REMARK   29  A    between atoms: _70  and  _71
REMARK   30  A    between atoms: _70  and  _73
REMARK   31  A    between atoms: _73  and  _74
REMARK   32  A    between atoms: _74  and  _75
REMARK   33  A    between atoms: _77  and  _79
REMARK   34  A    between atoms: _79  and  _80
REMARK   35  A    between atoms: _79  and  _82
REMARK   36  A    between atoms: _82  and  _83
REMARK   37  A    between atoms: _86  and  _88
REMARK   38  A    between atoms: _88  and  _89
REMARK   39  A    between atoms: _88  and  _91
REMARK   40  A    between atoms: _91  and  _92
REMARK   41  A    between atoms: _95  and  _97
REMARK   42  A    between atoms: _97  and  _98
REMARK   43  A    between atoms: _97  and  _100
REMARK   44  A    between atoms: _100  and  _101
REMARK   45  A    between atoms: _104  and  _105
REMARK   46  A    between atoms: _110  and  _112
REMARK   47  A    between atoms: _112  and  _113
REMARK   48  A    between atoms: _116  and  _118
REMARK   49  A    between atoms: _118  and  _119
REMARK   50  A    between atoms: _118  and  _121
REMARK   51  A    between atoms: _121  and  _122
REMARK   52  A    between atoms: _128  and  _130
REMARK   53  A    between atoms: _130  and  _131
REMARK   54  A    between atoms: _134  and  _136
REMARK   55  A    between atoms: _136  and  _137
REMARK   56  A    between atoms: _136  and  _139
REMARK   57  A    between atoms: _139  and  _140
REMARK   58  A    between atoms: _140  and  _141
REMARK   59  A    between atoms: _144  and  _146
REMARK   60  A    between atoms: _146  and  _147
REMARK   61  A    between atoms: _146  and  _149
REMARK   62  A    between atoms: _149  and  _150
REMARK   63  A    between atoms: _153  and  _155
REMARK   64  A    between atoms: _155  and  _156
REMARK   65  A    between atoms: _155  and  _158
REMARK   66  A    between atoms: _158  and  _159
REMARK   67  A    between atoms: _159  and  _160
REMARK   68  A    between atoms: _163  and  _165
REMARK   69  A    between atoms: _165  and  _166
REMARK   70  A    between atoms: _165  and  _168
REMARK   71  A    between atoms: _168  and  _169
REMARK   72  A    between atoms: _174  and  _176
REMARK   73  A    between atoms: _176  and  _177
REMARK   74  A    between atoms: _180  and  _182
REMARK   75  A    between atoms: _182  and  _183
REMARK   76  A    between atoms: _182  and  _185
REMARK   77  A    between atoms: _185  and  _186
REMARK   78  A    between atoms: _186  and  _187
REMARK   79  A    between atoms: _187  and  _188
REMARK   80  A    between atoms: _197  and  _199
REMARK   81  A    between atoms: _199  and  _200
REMARK   82  A    between atoms: _199  and  _202
REMARK   83  A    between atoms: _202  and  _203
REMARK   84  A    between atoms: _206  and  _208
REMARK   85  A    between atoms: _208  and  _209
REMARK   86  A    between atoms: _208  and  _211
REMARK   87  A    between atoms: _211  and  _212
REMARK   88  A    between atoms: _217  and  _219
REMARK   89  A    between atoms: _219  and  _220
REMARK   90  A    between atoms: _219  and  _222
REMARK   91  A    between atoms: _222  and  _223
REMARK   92  A    between atoms: _228  and  _230
REMARK   93  A    between atoms: _230  and  _231
REMARK   94  A    between atoms: _230  and  _233
REMARK   95  A    between atoms: _233  and  _234
REMARK   96  A    between atoms: _239  and  _241
REMARK   97  A    between atoms: _241  and  _242
REMARK   98  A    between atoms: _241  and  _244
REMARK   99  A    between atoms: _244  and  _245
REMARK  100  A    between atoms: _251  and  _253
REMARK  101  A    between atoms: _253  and  _254
REMARK  102  A    between atoms: _253  and  _256
REMARK  103  A    between atoms: _256  and  _257
REMARK  104  A    between atoms: _262  and  _264
REMARK  105  A    between atoms: _264  and  _265
REMARK  106  A    between atoms: _267  and  _269
REMARK  107  A    between atoms: _269  and  _270
REMARK  108  A    between atoms: _269  and  _272
REMARK  109  A    between atoms: _272  and  _273
REMARK  110  A    between atoms: _278  and  _279
REMARK  111  A    between atoms: _281  and  _283
REMARK  112  A    between atoms: _283  and  _284
REMARK  113  A    between atoms: _283  and  _286
REMARK  114  A    between atoms: _286  and  _287
REMARK  115  A    between atoms: _287  and  _288
REMARK  116  A    between atoms: _288  and  _289
REMARK  117  A    between atoms: _289  and  _290
REMARK  118  A    between atoms: _294  and  _296
REMARK  119  A    between atoms: _296  and  _297
REMARK  120  A    between atoms: _300  and  _302
REMARK  121  A    between atoms: _302  and  _303
REMARK  122  A    between atoms: _302  and  _305
REMARK  123  A    between atoms: _305  and  _306
REMARK  124  A    between atoms: _306  and  _307
REMARK  125  A    between atoms: _307  and  _308
REMARK  126  A    between atoms: _308  and  _309
REMARK  127  A    between atoms: _313  and  _315
REMARK  128  A    between atoms: _315  and  _316
REMARK  129  A    between atoms: _318  and  _320
REMARK  130  A    between atoms: _320  and  _321
REMARK  131  A    between atoms: _320  and  _323
REMARK  132  A    between atoms: _323  and  _324
REMARK  133  A    between atoms: _324  and  _325
REMARK  134  A    between atoms: _325  and  _326
REMARK  135  A    between atoms: _335  and  _337
REMARK  136  A    between atoms: _337  and  _338
REMARK  137  A    between atoms: _337  and  _340
REMARK  138  A    between atoms: _340  and  _341
REMARK  139  A    between atoms: _341  and  _342
REMARK  140  A    between atoms: _342  and  _343
REMARK  141  A    between atoms: _343  and  _344
REMARK  142  A    between atoms: _348  and  _350
REMARK  143  A    between atoms: _350  and  _351
REMARK  144  A    between atoms: _350  and  _353
REMARK  145  A    between atoms: _353  and  _354
REMARK  146  A    between atoms: _354  and  _355
REMARK                            x       y       z     vdW  Elec       q    Type
REMARK                         _______ _______ _______ _____ _____    ______ ____
ROOT
ATOM      1  O   HOH     1     -19.284  16.215  52.627  0.00  0.00    +0.000 OA
ENDROOT
TORSDOF 0
