REMARK  Name = ../refined-set-2016/4cp7/4cp7_pocket.pdb
REMARK  236 active torsions:
REMARK  status: ('A' for Active; 'I' for Inactive)
REMARK    1  A    between atoms: _1  and  _3
REMARK    2  A    between atoms: _3  and  _4
REMARK    3  A    between atoms: _3  and  _6
REMARK    4  A    between atoms: _6  and  _7
REMARK    5  A    between atoms: _7  and  _8
REMARK    6  A    between atoms: _8  and  _9
REMARK    7  A    between atoms: _18  and  _20
REMARK    8  A    between atoms: _20  and  _21
REMARK    9  A    between atoms: _20  and  _23
REMARK   10  A    between atoms: _23  and  _24
REMARK   11  A    between atoms: _27  and  _29
REMARK   12  A    between atoms: _29  and  _30
REMARK   13  A    between atoms: _29  and  _32
REMARK   14  A    between atoms: _32  and  _33
REMARK   15  A    between atoms: _36  and  _38
REMARK   16  A    between atoms: _38  and  _39
REMARK   17  A    between atoms: _38  and  _41
REMARK   18  A    between atoms: _41  and  _42
REMARK   19  A    between atoms: _45  and  _47
REMARK   20  A    between atoms: _47  and  _48
REMARK   21  A    between atoms: _47  and  _50
REMARK   22  A    between atoms: _50  and  _51
REMARK   23  A    between atoms: _54  and  _56
REMARK   24  A    between atoms: _56  and  _57
REMARK   25  A    between atoms: _59  and  _61
REMARK   26  A    between atoms: _61  and  _62
REMARK   27  A    between atoms: _65  and  _67
REMARK   28  A    between atoms: _67  and  _68
REMARK   29  A    between atoms: _67  and  _70
REMARK   30  A    between atoms: _70  and  _71
REMARK   31  A    between atoms: _74  and  _76
REMARK   32  A    between atoms: _76  and  _77
REMARK   33  A    between atoms: _76  and  _79
REMARK   34  A    between atoms: _79  and  _80
REMARK   35  A    between atoms: _83  and  _85
REMARK   36  A    between atoms: _85  and  _86
REMARK   37  A    between atoms: _85  and  _88
REMARK   38  A    between atoms: _88  and  _89
REMARK   39  A    between atoms: _92  and  _94
REMARK   40  A    between atoms: _94  and  _95
REMARK   41  A    between atoms: _94  and  _97
REMARK   42  A    between atoms: _100  and  _102
REMARK   43  A    between atoms: _102  and  _103
REMARK   44  A    between atoms: _102  and  _105
REMARK   45  A    between atoms: _105  and  _106
REMARK   46  A    between atoms: _106  and  _107
REMARK   47  A    between atoms: _107  and  _108
REMARK   48  A    between atoms: _108  and  _109
REMARK   49  A    between atoms: _113  and  _115
REMARK   50  A    between atoms: _115  and  _116
REMARK   51  A    between atoms: _115  and  _118
REMARK   52  A    between atoms: _118  and  _119
REMARK   53  A    between atoms: _119  and  _120
REMARK   54  A    between atoms: _122  and  _124
REMARK   55  A    between atoms: _124  and  _125
REMARK   56  A    between atoms: _124  and  _127
REMARK   57  A    between atoms: _127  and  _128
REMARK   58  A    between atoms: _131  and  _133
REMARK   59  A    between atoms: _133  and  _134
REMARK   60  A    between atoms: _136  and  _138
REMARK   61  A    between atoms: _138  and  _139
REMARK   62  A    between atoms: _141  and  _143
REMARK   63  A    between atoms: _143  and  _144
REMARK   64  A    between atoms: _143  and  _146
REMARK   65  A    between atoms: _146  and  _147
REMARK   66  A    between atoms: _150  and  _152
REMARK   67  A    between atoms: _152  and  _153
REMARK   68  A    between atoms: _155  and  _157
REMARK   69  A    between atoms: _157  and  _158
REMARK   70  A    between atoms: _160  and  _162
REMARK   71  A    between atoms: _162  and  _163
REMARK   72  A    between atoms: _162  and  _165
REMARK   73  A    between atoms: _165  and  _166
REMARK   74  A    between atoms: _172  and  _174
REMARK   75  A    between atoms: _174  and  _175
REMARK   76  A    between atoms: _174  and  _177
REMARK   77  A    between atoms: _177  and  _178
REMARK   78  A    between atoms: _181  and  _183
REMARK   79  A    between atoms: _183  and  _184
REMARK   80  A    between atoms: _183  and  _186
REMARK   81  A    between atoms: _186  and  _187
REMARK   82  A    between atoms: _190  and  _192
REMARK   83  A    between atoms: _192  and  _193
REMARK   84  A    between atoms: _192  and  _195
REMARK   85  A    between atoms: _195  and  _196
REMARK   86  A    between atoms: _200  and  _201
REMARK   87  A    between atoms: _206  and  _208
REMARK   88  A    between atoms: _208  and  _209
REMARK   89  A    between atoms: _208  and  _211
REMARK   90  A    between atoms: _211  and  _212
REMARK   91  A    between atoms: _215  and  _217
REMARK   92  A    between atoms: _217  and  _218
REMARK   93  A    between atoms: _217  and  _220
REMARK   94  A    between atoms: _220  and  _221
REMARK   95  A    between atoms: _226  and  _228
REMARK   96  A    between atoms: _228  and  _229
REMARK   97  A    between atoms: _228  and  _231
REMARK   98  A    between atoms: _234  and  _236
REMARK   99  A    between atoms: _236  and  _237
REMARK  100  A    between atoms: _236  and  _239
REMARK  101  A    between atoms: _239  and  _240
REMARK  102  A    between atoms: _243  and  _245
REMARK  103  A    between atoms: _245  and  _246
REMARK  104  A    between atoms: _248  and  _250
REMARK  105  A    between atoms: _250  and  _251
REMARK  106  A    between atoms: _250  and  _253
REMARK  107  A    between atoms: _253  and  _254
REMARK  108  A    between atoms: _254  and  _255
REMARK  109  A    between atoms: _255  and  _256
REMARK  110  A    between atoms: _265  and  _267
REMARK  111  A    between atoms: _267  and  _268
REMARK  112  A    between atoms: _267  and  _270
REMARK  113  A    between atoms: _270  and  _271
REMARK  114  A    between atoms: _276  and  _278
REMARK  115  A    between atoms: _278  and  _279
REMARK  116  A    between atoms: _278  and  _281
REMARK  117  A    between atoms: _281  and  _282
REMARK  118  A    between atoms: _282  and  _283
REMARK  119  A    between atoms: _283  and  _284
REMARK  120  A    between atoms: _293  and  _295
REMARK  121  A    between atoms: _295  and  _296
REMARK  122  A    between atoms: _295  and  _298
REMARK  123  A    between atoms: _298  and  _299
REMARK  124  A    between atoms: _302  and  _304
REMARK  125  A    between atoms: _304  and  _305
REMARK  126  A    between atoms: _304  and  _307
REMARK  127  A    between atoms: _307  and  _308
REMARK  128  A    between atoms: _311  and  _313
REMARK  129  A    between atoms: _313  and  _314
REMARK  130  A    between atoms: _313  and  _316
REMARK  131  A    between atoms: _316  and  _317
REMARK  132  A    between atoms: _320  and  _322
REMARK  133  A    between atoms: _322  and  _323
REMARK  134  A    between atoms: _322  and  _325
REMARK  135  A    between atoms: _325  and  _326
REMARK  136  A    between atoms: _329  and  _331
REMARK  137  A    between atoms: _331  and  _332
REMARK  138  A    between atoms: _331  and  _334
REMARK  139  A    between atoms: _334  and  _335
REMARK  140  A    between atoms: _338  and  _340
REMARK  141  A    between atoms: _340  and  _341
REMARK  142  A    between atoms: _343  and  _345
REMARK  143  A    between atoms: _345  and  _346
REMARK  144  A    between atoms: _349  and  _351
REMARK  145  A    between atoms: _351  and  _352
REMARK  146  A    between atoms: _351  and  _354
REMARK  147  A    between atoms: _354  and  _355
REMARK  148  A    between atoms: _358  and  _360
REMARK  149  A    between atoms: _360  and  _361
REMARK  150  A    between atoms: _360  and  _363
REMARK  151  A    between atoms: _363  and  _364
REMARK  152  A    between atoms: _367  and  _369
REMARK  153  A    between atoms: _369  and  _370
REMARK  154  A    between atoms: _369  and  _372
REMARK  155  A    between atoms: _372  and  _373
REMARK  156  A    between atoms: _376  and  _378
REMARK  157  A    between atoms: _378  and  _379
REMARK  158  A    between atoms: _378  and  _381
REMARK  159  A    between atoms: _384  and  _386
REMARK  160  A    between atoms: _386  and  _387
REMARK  161  A    between atoms: _386  and  _389
REMARK  162  A    between atoms: _389  and  _390
REMARK  163  A    between atoms: _390  and  _391
REMARK  164  A    between atoms: _394  and  _396
REMARK  165  A    between atoms: _396  and  _397
REMARK  166  A    between atoms: _396  and  _399
REMARK  167  A    between atoms: _399  and  _400
REMARK  168  A    between atoms: _400  and  _401
REMARK  169  A    between atoms: _401  and  _402
REMARK  170  A    between atoms: _402  and  _403
REMARK  171  A    between atoms: _407  and  _409
REMARK  172  A    between atoms: _409  and  _410
REMARK  173  A    between atoms: _409  and  _412
REMARK  174  A    between atoms: _412  and  _413
REMARK  175  A    between atoms: _413  and  _414
REMARK  176  A    between atoms: _416  and  _418
REMARK  177  A    between atoms: _418  and  _419
REMARK  178  A    between atoms: _418  and  _421
REMARK  179  A    between atoms: _421  and  _422
REMARK  180  A    between atoms: _425  and  _427
REMARK  181  A    between atoms: _427  and  _428
REMARK  182  A    between atoms: _430  and  _432
REMARK  183  A    between atoms: _432  and  _433
REMARK  184  A    between atoms: _435  and  _437
REMARK  185  A    between atoms: _437  and  _438
REMARK  186  A    between atoms: _437  and  _440
REMARK  187  A    between atoms: _440  and  _441
REMARK  188  A    between atoms: _444  and  _446
REMARK  189  A    between atoms: _446  and  _447
REMARK  190  A    between atoms: _449  and  _451
REMARK  191  A    between atoms: _451  and  _452
REMARK  192  A    between atoms: _454  and  _456
REMARK  193  A    between atoms: _456  and  _457
REMARK  194  A    between atoms: _456  and  _459
REMARK  195  A    between atoms: _459  and  _460
REMARK  196  A    between atoms: _466  and  _468
REMARK  197  A    between atoms: _468  and  _469
REMARK  198  A    between atoms: _468  and  _471
REMARK  199  A    between atoms: _471  and  _472
REMARK  200  A    between atoms: _475  and  _477
REMARK  201  A    between atoms: _477  and  _478
REMARK  202  A    between atoms: _477  and  _480
REMARK  203  A    between atoms: _483  and  _485
REMARK  204  A    between atoms: _485  and  _486
REMARK  205  A    between atoms: _485  and  _488
REMARK  206  A    between atoms: _488  and  _489
REMARK  207  A    between atoms: _492  and  _494
REMARK  208  A    between atoms: _494  and  _495
REMARK  209  A    between atoms: _494  and  _497
REMARK  210  A    between atoms: _495  and  _496
REMARK  211  A    between atoms: _495  and  _501
REMARK  212  A    between atoms: _497  and  _498
REMARK  213  A    between atoms: _502  and  _503
REMARK  214  A    between atoms: _508  and  _510
REMARK  215  A    between atoms: _510  and  _511
REMARK  216  A    between atoms: _510  and  _513
REMARK  217  A    between atoms: _513  and  _514
REMARK  218  A    between atoms: _517  and  _519
REMARK  219  A    between atoms: _519  and  _520
REMARK  220  A    between atoms: _519  and  _522
REMARK  221  A    between atoms: _522  and  _523
REMARK  222  A    between atoms: _528  and  _530
REMARK  223  A    between atoms: _530  and  _531
REMARK  224  A    between atoms: _530  and  _533
REMARK  225  A    between atoms: _536  and  _538
REMARK  226  A    between atoms: _538  and  _539
REMARK  227  A    between atoms: _538  and  _541
REMARK  228  A    between atoms: _541  and  _542
REMARK  229  A    between atoms: _545  and  _547
REMARK  230  A    between atoms: _547  and  _548
REMARK  231  A    between atoms: _550  and  _552
REMARK  232  A    between atoms: _552  and  _553
REMARK  233  A    between atoms: _552  and  _555
REMARK  234  A    between atoms: _555  and  _556
REMARK  235  A    between atoms: _556  and  _557
REMARK  236  A    between atoms: _557  and  _558
REMARK                            x       y       z     vdW  Elec       q    Type
REMARK                         _______ _______ _______ _____ _____    ______ ____
ROOT
ATOM      1  NE  ARG A   1      23.551  20.524   7.740  0.00  0.00    -0.265 N 
ATOM      2  CZ  ARG A   1      23.543  19.439   8.497  0.00  0.00    +0.342 C 
ATOM      3  NH2 ARG A   1      23.951  19.501   9.753  0.00  0.00    -0.292 N 
ATOM      4 HH21 ARG A   1      23.943  18.646  10.345  0.00  0.00    +0.255 HD
ATOM      5 HH22 ARG A   1      24.280  20.405  10.149  0.00  0.00    +0.255 HD
ATOM      6  NH1 ARG A   1      23.125  18.282   7.995  0.00  0.00    -0.292 N 
ATOM      7 HH11 ARG A   1      23.119  17.429   8.590  0.00  0.00    +0.255 HD
ATOM      8 HH12 ARG A   1      22.804  18.229   7.007  0.00  0.00    +0.255 HD
ATOM      9  HE  ARG A   1      23.222  20.432   6.758  0.00  0.00    +0.259 HD
ENDROOT
BRANCH   1  10
ATOM     10  CD  ARG A   1      23.985  21.828   8.184  0.00  0.00    +0.174 C 
BRANCH  10  11
ATOM     11  CG  ARG A   1      24.381  22.721   7.000  0.00  0.00    +0.045 C 
BRANCH  11  12
ATOM     12  CB  ARG A   1      24.899  24.054   7.454  0.00  0.00    +0.029 C 
BRANCH  12  13
ATOM     13  CA  ARG A   1      25.448  24.926   6.315  0.00  0.00    +0.133 C 
BRANCH  13  14
ATOM     14  N   ARG A   1      26.683  24.322   5.744  0.00  0.00    -0.239 NA
ATOM     15  H   ARG A   1      27.029  23.416   6.120  0.00  0.00    +0.142 HD
ENDBRANCH  13  14
BRANCH  13  16
ATOM     16  C   ARG A   1      25.762  26.296   6.819  0.00  0.00    +0.224 C 
ATOM     17  O   ARG A   1      26.750  26.485   7.560  0.00  0.00    -0.287 OA
ENDBRANCH  13  16
ENDBRANCH  12  13
ENDBRANCH  11  12
ENDBRANCH  10  11
ENDBRANCH   1  10
TORSDOF 6
REMARK  Name = ../refined-set-2016/4cp7/4cp7_pocket.pdb
REMARK  236 active torsions:
REMARK  status: ('A' for Active; 'I' for Inactive)
REMARK    1  A    between atoms: _1  and  _3
REMARK    2  A    between atoms: _3  and  _4
REMARK    3  A    between atoms: _3  and  _6
REMARK    4  A    between atoms: _6  and  _7
REMARK    5  A    between atoms: _7  and  _8
REMARK    6  A    between atoms: _8  and  _9
REMARK    7  A    between atoms: _18  and  _20
REMARK    8  A    between atoms: _20  and  _21
REMARK    9  A    between atoms: _20  and  _23
REMARK   10  A    between atoms: _23  and  _24
REMARK   11  A    between atoms: _27  and  _29
REMARK   12  A    between atoms: _29  and  _30
REMARK   13  A    between atoms: _29  and  _32
REMARK   14  A    between atoms: _32  and  _33
REMARK   15  A    between atoms: _36  and  _38
REMARK   16  A    between atoms: _38  and  _39
REMARK   17  A    between atoms: _38  and  _41
REMARK   18  A    between atoms: _41  and  _42
REMARK   19  A    between atoms: _45  and  _47
REMARK   20  A    between atoms: _47  and  _48
REMARK   21  A    between atoms: _47  and  _50
REMARK   22  A    between atoms: _50  and  _51
REMARK   23  A    between atoms: _54  and  _56
REMARK   24  A    between atoms: _56  and  _57
REMARK   25  A    between atoms: _59  and  _61
REMARK   26  A    between atoms: _61  and  _62
REMARK   27  A    between atoms: _65  and  _67
REMARK   28  A    between atoms: _67  and  _68
REMARK   29  A    between atoms: _67  and  _70
REMARK   30  A    between atoms: _70  and  _71
REMARK   31  A    between atoms: _74  and  _76
REMARK   32  A    between atoms: _76  and  _77
REMARK   33  A    between atoms: _76  and  _79
REMARK   34  A    between atoms: _79  and  _80
REMARK   35  A    between atoms: _83  and  _85
REMARK   36  A    between atoms: _85  and  _86
REMARK   37  A    between atoms: _85  and  _88
REMARK   38  A    between atoms: _88  and  _89
REMARK   39  A    between atoms: _92  and  _94
REMARK   40  A    between atoms: _94  and  _95
REMARK   41  A    between atoms: _94  and  _97
REMARK   42  A    between atoms: _100  and  _102
REMARK   43  A    between atoms: _102  and  _103
REMARK   44  A    between atoms: _102  and  _105
REMARK   45  A    between atoms: _105  and  _106
REMARK   46  A    between atoms: _106  and  _107
REMARK   47  A    between atoms: _107  and  _108
REMARK   48  A    between atoms: _108  and  _109
REMARK   49  A    between atoms: _113  and  _115
REMARK   50  A    between atoms: _115  and  _116
REMARK   51  A    between atoms: _115  and  _118
REMARK   52  A    between atoms: _118  and  _119
REMARK   53  A    between atoms: _119  and  _120
REMARK   54  A    between atoms: _122  and  _124
REMARK   55  A    between atoms: _124  and  _125
REMARK   56  A    between atoms: _124  and  _127
REMARK   57  A    between atoms: _127  and  _128
REMARK   58  A    between atoms: _131  and  _133
REMARK   59  A    between atoms: _133  and  _134
REMARK   60  A    between atoms: _136  and  _138
REMARK   61  A    between atoms: _138  and  _139
REMARK   62  A    between atoms: _141  and  _143
REMARK   63  A    between atoms: _143  and  _144
REMARK   64  A    between atoms: _143  and  _146
REMARK   65  A    between atoms: _146  and  _147
REMARK   66  A    between atoms: _150  and  _152
REMARK   67  A    between atoms: _152  and  _153
REMARK   68  A    between atoms: _155  and  _157
REMARK   69  A    between atoms: _157  and  _158
REMARK   70  A    between atoms: _160  and  _162
REMARK   71  A    between atoms: _162  and  _163
REMARK   72  A    between atoms: _162  and  _165
REMARK   73  A    between atoms: _165  and  _166
REMARK   74  A    between atoms: _172  and  _174
REMARK   75  A    between atoms: _174  and  _175
REMARK   76  A    between atoms: _174  and  _177
REMARK   77  A    between atoms: _177  and  _178
REMARK   78  A    between atoms: _181  and  _183
REMARK   79  A    between atoms: _183  and  _184
REMARK   80  A    between atoms: _183  and  _186
REMARK   81  A    between atoms: _186  and  _187
REMARK   82  A    between atoms: _190  and  _192
REMARK   83  A    between atoms: _192  and  _193
REMARK   84  A    between atoms: _192  and  _195
REMARK   85  A    between atoms: _195  and  _196
REMARK   86  A    between atoms: _200  and  _201
REMARK   87  A    between atoms: _206  and  _208
REMARK   88  A    between atoms: _208  and  _209
REMARK   89  A    between atoms: _208  and  _211
REMARK   90  A    between atoms: _211  and  _212
REMARK   91  A    between atoms: _215  and  _217
REMARK   92  A    between atoms: _217  and  _218
REMARK   93  A    between atoms: _217  and  _220
REMARK   94  A    between atoms: _220  and  _221
REMARK   95  A    between atoms: _226  and  _228
REMARK   96  A    between atoms: _228  and  _229
REMARK   97  A    between atoms: _228  and  _231
REMARK   98  A    between atoms: _234  and  _236
REMARK   99  A    between atoms: _236  and  _237
REMARK  100  A    between atoms: _236  and  _239
REMARK  101  A    between atoms: _239  and  _240
REMARK  102  A    between atoms: _243  and  _245
REMARK  103  A    between atoms: _245  and  _246
REMARK  104  A    between atoms: _248  and  _250
REMARK  105  A    between atoms: _250  and  _251
REMARK  106  A    between atoms: _250  and  _253
REMARK  107  A    between atoms: _253  and  _254
REMARK  108  A    between atoms: _254  and  _255
REMARK  109  A    between atoms: _255  and  _256
REMARK  110  A    between atoms: _265  and  _267
REMARK  111  A    between atoms: _267  and  _268
REMARK  112  A    between atoms: _267  and  _270
REMARK  113  A    between atoms: _270  and  _271
REMARK  114  A    between atoms: _276  and  _278
REMARK  115  A    between atoms: _278  and  _279
REMARK  116  A    between atoms: _278  and  _281
REMARK  117  A    between atoms: _281  and  _282
REMARK  118  A    between atoms: _282  and  _283
REMARK  119  A    between atoms: _283  and  _284
REMARK  120  A    between atoms: _293  and  _295
REMARK  121  A    between atoms: _295  and  _296
REMARK  122  A    between atoms: _295  and  _298
REMARK  123  A    between atoms: _298  and  _299
REMARK  124  A    between atoms: _302  and  _304
REMARK  125  A    between atoms: _304  and  _305
REMARK  126  A    between atoms: _304  and  _307
REMARK  127  A    between atoms: _307  and  _308
REMARK  128  A    between atoms: _311  and  _313
REMARK  129  A    between atoms: _313  and  _314
REMARK  130  A    between atoms: _313  and  _316
REMARK  131  A    between atoms: _316  and  _317
REMARK  132  A    between atoms: _320  and  _322
REMARK  133  A    between atoms: _322  and  _323
REMARK  134  A    between atoms: _322  and  _325
REMARK  135  A    between atoms: _325  and  _326
REMARK  136  A    between atoms: _329  and  _331
REMARK  137  A    between atoms: _331  and  _332
REMARK  138  A    between atoms: _331  and  _334
REMARK  139  A    between atoms: _334  and  _335
REMARK  140  A    between atoms: _338  and  _340
REMARK  141  A    between atoms: _340  and  _341
REMARK  142  A    between atoms: _343  and  _345
REMARK  143  A    between atoms: _345  and  _346
REMARK  144  A    between atoms: _349  and  _351
REMARK  145  A    between atoms: _351  and  _352
REMARK  146  A    between atoms: _351  and  _354
REMARK  147  A    between atoms: _354  and  _355
REMARK  148  A    between atoms: _358  and  _360
REMARK  149  A    between atoms: _360  and  _361
REMARK  150  A    between atoms: _360  and  _363
REMARK  151  A    between atoms: _363  and  _364
REMARK  152  A    between atoms: _367  and  _369
REMARK  153  A    between atoms: _369  and  _370
REMARK  154  A    between atoms: _369  and  _372
REMARK  155  A    between atoms: _372  and  _373
REMARK  156  A    between atoms: _376  and  _378
REMARK  157  A    between atoms: _378  and  _379
REMARK  158  A    between atoms: _378  and  _381
REMARK  159  A    between atoms: _384  and  _386
REMARK  160  A    between atoms: _386  and  _387
REMARK  161  A    between atoms: _386  and  _389
REMARK  162  A    between atoms: _389  and  _390
REMARK  163  A    between atoms: _390  and  _391
REMARK  164  A    between atoms: _394  and  _396
REMARK  165  A    between atoms: _396  and  _397
REMARK  166  A    between atoms: _396  and  _399
REMARK  167  A    between atoms: _399  and  _400
REMARK  168  A    between atoms: _400  and  _401
REMARK  169  A    between atoms: _401  and  _402
REMARK  170  A    between atoms: _402  and  _403
REMARK  171  A    between atoms: _407  and  _409
REMARK  172  A    between atoms: _409  and  _410
REMARK  173  A    between atoms: _409  and  _412
REMARK  174  A    between atoms: _412  and  _413
REMARK  175  A    between atoms: _413  and  _414
REMARK  176  A    between atoms: _416  and  _418
REMARK  177  A    between atoms: _418  and  _419
REMARK  178  A    between atoms: _418  and  _421
REMARK  179  A    between atoms: _421  and  _422
REMARK  180  A    between atoms: _425  and  _427
REMARK  181  A    between atoms: _427  and  _428
REMARK  182  A    between atoms: _430  and  _432
REMARK  183  A    between atoms: _432  and  _433
REMARK  184  A    between atoms: _435  and  _437
REMARK  185  A    between atoms: _437  and  _438
REMARK  186  A    between atoms: _437  and  _440
REMARK  187  A    between atoms: _440  and  _441
REMARK  188  A    between atoms: _444  and  _446
REMARK  189  A    between atoms: _446  and  _447
REMARK  190  A    between atoms: _449  and  _451
REMARK  191  A    between atoms: _451  and  _452
REMARK  192  A    between atoms: _454  and  _456
REMARK  193  A    between atoms: _456  and  _457
REMARK  194  A    between atoms: _456  and  _459
REMARK  195  A    between atoms: _459  and  _460
REMARK  196  A    between atoms: _466  and  _468
REMARK  197  A    between atoms: _468  and  _469
REMARK  198  A    between atoms: _468  and  _471
REMARK  199  A    between atoms: _471  and  _472
REMARK  200  A    between atoms: _475  and  _477
REMARK  201  A    between atoms: _477  and  _478
REMARK  202  A    between atoms: _477  and  _480
REMARK  203  A    between atoms: _483  and  _485
REMARK  204  A    between atoms: _485  and  _486
REMARK  205  A    between atoms: _485  and  _488
REMARK  206  A    between atoms: _488  and  _489
REMARK  207  A    between atoms: _492  and  _494
REMARK  208  A    between atoms: _494  and  _495
REMARK  209  A    between atoms: _494  and  _497
REMARK  210  A    between atoms: _495  and  _496
REMARK  211  A    between atoms: _495  and  _501
REMARK  212  A    between atoms: _497  and  _498
REMARK  213  A    between atoms: _502  and  _503
REMARK  214  A    between atoms: _508  and  _510
REMARK  215  A    between atoms: _510  and  _511
REMARK  216  A    between atoms: _510  and  _513
REMARK  217  A    between atoms: _513  and  _514
REMARK  218  A    between atoms: _517  and  _519
REMARK  219  A    between atoms: _519  and  _520
REMARK  220  A    between atoms: _519  and  _522
REMARK  221  A    between atoms: _522  and  _523
REMARK  222  A    between atoms: _528  and  _530
REMARK  223  A    between atoms: _530  and  _531
REMARK  224  A    between atoms: _530  and  _533
REMARK  225  A    between atoms: _536  and  _538
REMARK  226  A    between atoms: _538  and  _539
REMARK  227  A    between atoms: _538  and  _541
REMARK  228  A    between atoms: _541  and  _542
REMARK  229  A    between atoms: _545  and  _547
REMARK  230  A    between atoms: _547  and  _548
REMARK  231  A    between atoms: _550  and  _552
REMARK  232  A    between atoms: _552  and  _553
REMARK  233  A    between atoms: _552  and  _555
REMARK  234  A    between atoms: _555  and  _556
REMARK  235  A    between atoms: _556  and  _557
REMARK  236  A    between atoms: _557  and  _558
REMARK                            x       y       z     vdW  Elec       q    Type
REMARK                         _______ _______ _______ _____ _____    ______ ____
ROOT
ATOM      1  C   GLY A   5      12.248  28.447   3.328  0.00  0.00    +0.243 C 
ATOM      2  N   ALA A   6      12.576  29.107   4.444  0.00  0.00    -0.297 N 
ATOM      3  H   ALA A   6      13.505  29.571   4.507  0.00  0.00    +0.150 HD
ATOM      4  O   GLY A   5      11.126  27.892   3.169  0.00  0.00    -0.273 OA
ENDROOT
BRANCH   2   5
ATOM      5  CA  ALA A   6      11.656  29.190   5.577  0.00  0.00    +0.149 C 
ATOM      6  CB  ALA A   6      12.412  28.988   6.888  0.00  0.00    +0.031 C 
BRANCH   5   7
ATOM      7  C   ALA A   6      10.939  30.542   5.577  0.00  0.00    +0.241 C 
ATOM      8  N   ASP A   7       9.584  30.507   5.604  0.00  0.00    -0.297 N 
ATOM      9  H   ASP A   7       9.097  29.593   5.503  0.00  0.00    +0.150 HD
ATOM     10  O   ALA A   6      11.583  31.597   5.552  0.00  0.00    -0.273 OA
BRANCH   8  11
ATOM     11  CA  ASP A   7       8.750  31.786   5.781  0.00  0.00    +0.160 C 
BRANCH  11  12
ATOM     12  C   ASP A   7       9.070  32.411   7.097  0.00  0.00    +0.241 C 
ATOM     13  N   ASP A   8       9.231  31.542   8.137  0.00  0.00    -0.297 N 
ATOM     14  H   ASP A   8       9.383  30.535   7.926  0.00  0.00    +0.150 HD
ATOM     15  O   ASP A   7       9.176  33.637   7.212  0.00  0.00    -0.273 OA
BRANCH  13  16
ATOM     16  CA  ASP A   8       9.199  31.966   9.526  0.00  0.00    +0.160 C 
BRANCH  16  17
ATOM     17  C   ASP A   8      10.493  31.566  10.220  0.00  0.00    +0.241 C 
ATOM     18  N   THR A   9      10.820  32.273  11.264  0.00  0.00    -0.295 N 
ATOM     19  H   THR A   9      10.293  33.147  11.463  0.00  0.00    +0.150 HD
ATOM     20  O   ASP A   8      11.161  30.637   9.808  0.00  0.00    -0.273 OA
BRANCH  18  21
ATOM     21  CA  THR A   9      11.902  31.881  12.165  0.00  0.00    +0.176 C 
BRANCH  21  22
ATOM     22  C   THR A   9      11.371  30.923  13.255  0.00  0.00    +0.243 C 
ATOM     23  O   THR A   9      10.392  31.209  13.901  0.00  0.00    -0.273 OA
ATOM     24  N   VAL A  10      12.055  29.777  13.428  0.00  0.00    -0.298 N 
ATOM     25  H   VAL A  10      12.903  29.601  12.853  0.00  0.00    +0.150 HD
BRANCH  24  26
ATOM     26  CA  VAL A  10      11.628  28.756  14.421  0.00  0.00    +0.137 C 
BRANCH  26  27
ATOM     27  CB  VAL A  10      10.986  27.529  13.746  0.00  0.00    +0.026 C 
ATOM     28  CG2 VAL A  10      10.095  26.744  14.790  0.00  0.00    +0.002 C 
ATOM     29  CG1 VAL A  10      10.185  27.939  12.566  0.00  0.00    +0.002 C 
ENDBRANCH  26  27
BRANCH  26  30
ATOM     30  C   VAL A  10      12.762  28.286  15.241  0.00  0.00    +0.227 C 
ATOM     31  O   VAL A  10      13.794  27.866  14.713  0.00  0.00    -0.286 OA
ENDBRANCH  26  30
ENDBRANCH  24  26
ENDBRANCH  21  22
BRANCH  21  32
ATOM     32  CB  THR A   9      12.521  33.119  12.831  0.00  0.00    +0.137 C 
ATOM     33  CG2 THR A   9      13.516  32.732  13.862  0.00  0.00    +0.034 C 
BRANCH  32  34
ATOM     34  OG1 THR A   9      13.158  33.929  11.828  0.00  0.00    -0.382 OA
ATOM     35  HG1 THR A   9      12.486  34.213  11.159  0.00  0.00    +0.210 HD
ENDBRANCH  32  34
ENDBRANCH  21  32
ENDBRANCH  18  21
ENDBRANCH  16  17
BRANCH  16  36
ATOM     36  CB  ASP A   8       7.972  31.276  10.294  0.00  0.00    +0.143 C 
BRANCH  36  37
ATOM     37  CG  ASP A   8       6.643  31.441   9.559  0.00  0.00    +0.367 C 
ATOM     38  OD2 ASP A   8       5.930  30.382   9.325  0.00  0.00    -0.246 OA
ATOM     39  OD1 ASP A   8       6.296  32.580   9.217  0.00  0.00    -0.246 OA
ENDBRANCH  36  37
ENDBRANCH  16  36
ENDBRANCH  13  16
ENDBRANCH  11  12
BRANCH  11  40
ATOM     40  CB  ASP A   7       7.238  31.456   5.740  0.00  0.00    +0.143 C 
BRANCH  40  41
ATOM     41  CG  ASP A   7       6.738  31.060   4.318  0.00  0.00    +0.367 C 
ATOM     42  OD2 ASP A   7       5.548  30.655   4.204  0.00  0.00    -0.246 OA
ATOM     43  OD1 ASP A   7       7.530  31.155   3.328  0.00  0.00    -0.246 OA
ENDBRANCH  40  41
ENDBRANCH  11  40
ENDBRANCH   8  11
ENDBRANCH   5   7
ENDBRANCH   2   5
BRANCH   1  44
ATOM     44  CA  GLY A   5      13.317  28.388   2.221  0.00  0.00    +0.176 C 
BRANCH  44  46
ATOM     45  C   THR A   4      14.564  30.503   2.221  0.00  0.00    +0.243 C 
ATOM     46  N   GLY A   5      14.519  29.225   2.517  0.00  0.00    -0.295 N 
ATOM     47  H   GLY A   5      15.344  28.782   2.971  0.00  0.00    +0.150 HD
ATOM     48  O   THR A   4      13.639  31.094   1.697  0.00  0.00    -0.273 OA
BRANCH  45  49
ATOM     49  CA  THR A   4      15.877  31.245   2.580  0.00  0.00    +0.176 C 
BRANCH  49  52
ATOM     50  C   ASP A   3      16.251  30.281   4.820  0.00  0.00    +0.241 C 
ATOM     51  O   ASP A   3      15.201  30.701   5.219  0.00  0.00    -0.273 OA
ATOM     52  N   THR A   4      16.674  30.460   3.563  0.00  0.00    -0.295 N 
ATOM     53  H   THR A   4      17.579  30.042   3.266  0.00  0.00    +0.150 HD
BRANCH  50  54
ATOM     54  CA  ASP A   3      17.188  29.497   5.757  0.00  0.00    +0.160 C 
BRANCH  54  56
ATOM     55  C   LEU A   2      19.353  30.322   6.535  0.00  0.00    +0.241 C 
ATOM     56  N   ASP A   3      18.025  30.417   6.529  0.00  0.00    -0.297 N 
ATOM     57  H   ASP A   3      17.569  31.166   7.089  0.00  0.00    +0.150 HD
ATOM     58  O   LEU A   2      19.976  29.697   5.702  0.00  0.00    -0.273 OA
BRANCH  55  59
ATOM     59  CA  LEU A   2      20.069  31.038   7.651  0.00  0.00    +0.149 C 
BRANCH  59  62
ATOM     60  C   LEU A   1      19.918  29.328   9.421  0.00  0.00    +0.238 C 
ATOM     61  O   LEU A   1      18.745  29.533   9.559  0.00  0.00    -0.274 OA
ATOM     62  N   LEU A   2      20.673  30.022   8.576  0.00  0.00    -0.297 N 
ATOM     63  H   LEU A   2      21.700  29.858   8.555  0.00  0.00    +0.150 HD
BRANCH  60  64
ATOM     64  CA  LEU A   1      20.619  28.231  10.238  0.00  0.00    +0.145 C 
BRANCH  64  65
ATOM     65  N   LEU A   1      20.347  28.446  11.672  0.00  0.00    -0.238 NA
ATOM     66  H   LEU A   1      19.443  28.108  12.060  0.00  0.00    +0.142 HD
ENDBRANCH  64  65
BRANCH  64  67
ATOM     67  CB  LEU A   1      20.077  26.850   9.834  0.00  0.00    +0.026 C 
BRANCH  67  68
ATOM     68  CG  LEU A   1      20.276  26.360   8.462  0.00  0.00    +0.002 C 
ATOM     69  CD2 LEU A   1      19.455  25.020   8.269  0.00  0.00    +0.000 C 
ATOM     70  CD1 LEU A   1      21.734  26.138   8.168  0.00  0.00    +0.000 C 
ENDBRANCH  67  68
ENDBRANCH  64  67
ENDBRANCH  60  64
ENDBRANCH  59  62
BRANCH  59  71
ATOM     71  CB  LEU A   2      21.165  31.967   7.060  0.00  0.00    +0.029 C 
BRANCH  71  72
ATOM     72  CG  LEU A   2      22.026  32.769   8.069  0.00  0.00    +0.002 C 
ATOM     73  CD2 LEU A   2      21.151  33.553   9.038  0.00  0.00    +0.000 C 
ATOM     74  CD1 LEU A   2      22.968  33.696   7.332  0.00  0.00    +0.000 C 
ENDBRANCH  71  72
ENDBRANCH  59  71
ENDBRANCH  55  59
ENDBRANCH  54  56
BRANCH  54  75
ATOM     75  CB  ASP A   3      16.373  28.640   6.694  0.00  0.00    +0.143 C 
BRANCH  75  76
ATOM     76  CG  ASP A   3      15.710  27.444   5.984  0.00  0.00    +0.367 C 
ATOM     77  OD2 ASP A   3      15.240  26.513   6.703  0.00  0.00    -0.246 OA
ATOM     78  OD1 ASP A   3      15.657  27.432   4.726  0.00  0.00    -0.246 OA
ENDBRANCH  75  76
ENDBRANCH  54  75
ENDBRANCH  50  54
ENDBRANCH  49  52
BRANCH  49  79
ATOM     79  CB  THR A   4      16.668  31.519   1.288  0.00  0.00    +0.137 C 
ATOM     80  CG2 THR A   4      17.848  32.443   1.561  0.00  0.00    +0.034 C 
BRANCH  79  81
ATOM     81  OG1 THR A   4      17.148  30.281   0.737  0.00  0.00    -0.382 OA
ATOM     82  HG1 THR A   4      16.379  29.692   0.531  0.00  0.00    +0.210 HD
ENDBRANCH  79  81
ENDBRANCH  49  79
ENDBRANCH  45  49
ENDBRANCH  44  46
ENDBRANCH   1  44
TORSDOF 35
REMARK  Name = ../refined-set-2016/4cp7/4cp7_pocket.pdb
REMARK  236 active torsions:
REMARK  status: ('A' for Active; 'I' for Inactive)
REMARK    1  A    between atoms: _1  and  _3
REMARK    2  A    between atoms: _3  and  _4
REMARK    3  A    between atoms: _3  and  _6
REMARK    4  A    between atoms: _6  and  _7
REMARK    5  A    between atoms: _7  and  _8
REMARK    6  A    between atoms: _8  and  _9
REMARK    7  A    between atoms: _18  and  _20
REMARK    8  A    between atoms: _20  and  _21
REMARK    9  A    between atoms: _20  and  _23
REMARK   10  A    between atoms: _23  and  _24
REMARK   11  A    between atoms: _27  and  _29
REMARK   12  A    between atoms: _29  and  _30
REMARK   13  A    between atoms: _29  and  _32
REMARK   14  A    between atoms: _32  and  _33
REMARK   15  A    between atoms: _36  and  _38
REMARK   16  A    between atoms: _38  and  _39
REMARK   17  A    between atoms: _38  and  _41
REMARK   18  A    between atoms: _41  and  _42
REMARK   19  A    between atoms: _45  and  _47
REMARK   20  A    between atoms: _47  and  _48
REMARK   21  A    between atoms: _47  and  _50
REMARK   22  A    between atoms: _50  and  _51
REMARK   23  A    between atoms: _54  and  _56
REMARK   24  A    between atoms: _56  and  _57
REMARK   25  A    between atoms: _59  and  _61
REMARK   26  A    between atoms: _61  and  _62
REMARK   27  A    between atoms: _65  and  _67
REMARK   28  A    between atoms: _67  and  _68
REMARK   29  A    between atoms: _67  and  _70
REMARK   30  A    between atoms: _70  and  _71
REMARK   31  A    between atoms: _74  and  _76
REMARK   32  A    between atoms: _76  and  _77
REMARK   33  A    between atoms: _76  and  _79
REMARK   34  A    between atoms: _79  and  _80
REMARK   35  A    between atoms: _83  and  _85
REMARK   36  A    between atoms: _85  and  _86
REMARK   37  A    between atoms: _85  and  _88
REMARK   38  A    between atoms: _88  and  _89
REMARK   39  A    between atoms: _92  and  _94
REMARK   40  A    between atoms: _94  and  _95
REMARK   41  A    between atoms: _94  and  _97
REMARK   42  A    between atoms: _100  and  _102
REMARK   43  A    between atoms: _102  and  _103
REMARK   44  A    between atoms: _102  and  _105
REMARK   45  A    between atoms: _105  and  _106
REMARK   46  A    between atoms: _106  and  _107
REMARK   47  A    between atoms: _107  and  _108
REMARK   48  A    between atoms: _108  and  _109
REMARK   49  A    between atoms: _113  and  _115
REMARK   50  A    between atoms: _115  and  _116
REMARK   51  A    between atoms: _115  and  _118
REMARK   52  A    between atoms: _118  and  _119
REMARK   53  A    between atoms: _119  and  _120
REMARK   54  A    between atoms: _122  and  _124
REMARK   55  A    between atoms: _124  and  _125
REMARK   56  A    between atoms: _124  and  _127
REMARK   57  A    between atoms: _127  and  _128
REMARK   58  A    between atoms: _131  and  _133
REMARK   59  A    between atoms: _133  and  _134
REMARK   60  A    between atoms: _136  and  _138
REMARK   61  A    between atoms: _138  and  _139
REMARK   62  A    between atoms: _141  and  _143
REMARK   63  A    between atoms: _143  and  _144
REMARK   64  A    between atoms: _143  and  _146
REMARK   65  A    between atoms: _146  and  _147
REMARK   66  A    between atoms: _150  and  _152
REMARK   67  A    between atoms: _152  and  _153
REMARK   68  A    between atoms: _155  and  _157
REMARK   69  A    between atoms: _157  and  _158
REMARK   70  A    between atoms: _160  and  _162
REMARK   71  A    between atoms: _162  and  _163
REMARK   72  A    between atoms: _162  and  _165
REMARK   73  A    between atoms: _165  and  _166
REMARK   74  A    between atoms: _172  and  _174
REMARK   75  A    between atoms: _174  and  _175
REMARK   76  A    between atoms: _174  and  _177
REMARK   77  A    between atoms: _177  and  _178
REMARK   78  A    between atoms: _181  and  _183
REMARK   79  A    between atoms: _183  and  _184
REMARK   80  A    between atoms: _183  and  _186
REMARK   81  A    between atoms: _186  and  _187
REMARK   82  A    between atoms: _190  and  _192
REMARK   83  A    between atoms: _192  and  _193
REMARK   84  A    between atoms: _192  and  _195
REMARK   85  A    between atoms: _195  and  _196
REMARK   86  A    between atoms: _200  and  _201
REMARK   87  A    between atoms: _206  and  _208
REMARK   88  A    between atoms: _208  and  _209
REMARK   89  A    between atoms: _208  and  _211
REMARK   90  A    between atoms: _211  and  _212
REMARK   91  A    between atoms: _215  and  _217
REMARK   92  A    between atoms: _217  and  _218
REMARK   93  A    between atoms: _217  and  _220
REMARK   94  A    between atoms: _220  and  _221
REMARK   95  A    between atoms: _226  and  _228
REMARK   96  A    between atoms: _228  and  _229
REMARK   97  A    between atoms: _228  and  _231
REMARK   98  A    between atoms: _234  and  _236
REMARK   99  A    between atoms: _236  and  _237
REMARK  100  A    between atoms: _236  and  _239
REMARK  101  A    between atoms: _239  and  _240
REMARK  102  A    between atoms: _243  and  _245
REMARK  103  A    between atoms: _245  and  _246
REMARK  104  A    between atoms: _248  and  _250
REMARK  105  A    between atoms: _250  and  _251
REMARK  106  A    between atoms: _250  and  _253
REMARK  107  A    between atoms: _253  and  _254
REMARK  108  A    between atoms: _254  and  _255
REMARK  109  A    between atoms: _255  and  _256
REMARK  110  A    between atoms: _265  and  _267
REMARK  111  A    between atoms: _267  and  _268
REMARK  112  A    between atoms: _267  and  _270
REMARK  113  A    between atoms: _270  and  _271
REMARK  114  A    between atoms: _276  and  _278
REMARK  115  A    between atoms: _278  and  _279
REMARK  116  A    between atoms: _278  and  _281
REMARK  117  A    between atoms: _281  and  _282
REMARK  118  A    between atoms: _282  and  _283
REMARK  119  A    between atoms: _283  and  _284
REMARK  120  A    between atoms: _293  and  _295
REMARK  121  A    between atoms: _295  and  _296
REMARK  122  A    between atoms: _295  and  _298
REMARK  123  A    between atoms: _298  and  _299
REMARK  124  A    between atoms: _302  and  _304
REMARK  125  A    between atoms: _304  and  _305
REMARK  126  A    between atoms: _304  and  _307
REMARK  127  A    between atoms: _307  and  _308
REMARK  128  A    between atoms: _311  and  _313
REMARK  129  A    between atoms: _313  and  _314
REMARK  130  A    between atoms: _313  and  _316
REMARK  131  A    between atoms: _316  and  _317
REMARK  132  A    between atoms: _320  and  _322
REMARK  133  A    between atoms: _322  and  _323
REMARK  134  A    between atoms: _322  and  _325
REMARK  135  A    between atoms: _325  and  _326
REMARK  136  A    between atoms: _329  and  _331
REMARK  137  A    between atoms: _331  and  _332
REMARK  138  A    between atoms: _331  and  _334
REMARK  139  A    between atoms: _334  and  _335
REMARK  140  A    between atoms: _338  and  _340
REMARK  141  A    between atoms: _340  and  _341
REMARK  142  A    between atoms: _343  and  _345
REMARK  143  A    between atoms: _345  and  _346
REMARK  144  A    between atoms: _349  and  _351
REMARK  145  A    between atoms: _351  and  _352
REMARK  146  A    between atoms: _351  and  _354
REMARK  147  A    between atoms: _354  and  _355
REMARK  148  A    between atoms: _358  and  _360
REMARK  149  A    between atoms: _360  and  _361
REMARK  150  A    between atoms: _360  and  _363
REMARK  151  A    between atoms: _363  and  _364
REMARK  152  A    between atoms: _367  and  _369
REMARK  153  A    between atoms: _369  and  _370
REMARK  154  A    between atoms: _369  and  _372
REMARK  155  A    between atoms: _372  and  _373
REMARK  156  A    between atoms: _376  and  _378
REMARK  157  A    between atoms: _378  and  _379
REMARK  158  A    between atoms: _378  and  _381
REMARK  159  A    between atoms: _384  and  _386
REMARK  160  A    between atoms: _386  and  _387
REMARK  161  A    between atoms: _386  and  _389
REMARK  162  A    between atoms: _389  and  _390
REMARK  163  A    between atoms: _390  and  _391
REMARK  164  A    between atoms: _394  and  _396
REMARK  165  A    between atoms: _396  and  _397
REMARK  166  A    between atoms: _396  and  _399
REMARK  167  A    between atoms: _399  and  _400
REMARK  168  A    between atoms: _400  and  _401
REMARK  169  A    between atoms: _401  and  _402
REMARK  170  A    between atoms: _402  and  _403
REMARK  171  A    between atoms: _407  and  _409
REMARK  172  A    between atoms: _409  and  _410
REMARK  173  A    between atoms: _409  and  _412
REMARK  174  A    between atoms: _412  and  _413
REMARK  175  A    between atoms: _413  and  _414
REMARK  176  A    between atoms: _416  and  _418
REMARK  177  A    between atoms: _418  and  _419
REMARK  178  A    between atoms: _418  and  _421
REMARK  179  A    between atoms: _421  and  _422
REMARK  180  A    between atoms: _425  and  _427
REMARK  181  A    between atoms: _427  and  _428
REMARK  182  A    between atoms: _430  and  _432
REMARK  183  A    between atoms: _432  and  _433
REMARK  184  A    between atoms: _435  and  _437
REMARK  185  A    between atoms: _437  and  _438
REMARK  186  A    between atoms: _437  and  _440
REMARK  187  A    between atoms: _440  and  _441
REMARK  188  A    between atoms: _444  and  _446
REMARK  189  A    between atoms: _446  and  _447
REMARK  190  A    between atoms: _449  and  _451
REMARK  191  A    between atoms: _451  and  _452
REMARK  192  A    between atoms: _454  and  _456
REMARK  193  A    between atoms: _456  and  _457
REMARK  194  A    between atoms: _456  and  _459
REMARK  195  A    between atoms: _459  and  _460
REMARK  196  A    between atoms: _466  and  _468
REMARK  197  A    between atoms: _468  and  _469
REMARK  198  A    between atoms: _468  and  _471
REMARK  199  A    between atoms: _471  and  _472
REMARK  200  A    between atoms: _475  and  _477
REMARK  201  A    between atoms: _477  and  _478
REMARK  202  A    between atoms: _477  and  _480
REMARK  203  A    between atoms: _483  and  _485
REMARK  204  A    between atoms: _485  and  _486
REMARK  205  A    between atoms: _485  and  _488
REMARK  206  A    between atoms: _488  and  _489
REMARK  207  A    between atoms: _492  and  _494
REMARK  208  A    between atoms: _494  and  _495
REMARK  209  A    between atoms: _494  and  _497
REMARK  210  A    between atoms: _495  and  _496
REMARK  211  A    between atoms: _495  and  _501
REMARK  212  A    between atoms: _497  and  _498
REMARK  213  A    between atoms: _502  and  _503
REMARK  214  A    between atoms: _508  and  _510
REMARK  215  A    between atoms: _510  and  _511
REMARK  216  A    between atoms: _510  and  _513
REMARK  217  A    between atoms: _513  and  _514
REMARK  218  A    between atoms: _517  and  _519
REMARK  219  A    between atoms: _519  and  _520
REMARK  220  A    between atoms: _519  and  _522
REMARK  221  A    between atoms: _522  and  _523
REMARK  222  A    between atoms: _528  and  _530
REMARK  223  A    between atoms: _530  and  _531
REMARK  224  A    between atoms: _530  and  _533
REMARK  225  A    between atoms: _536  and  _538
REMARK  226  A    between atoms: _538  and  _539
REMARK  227  A    between atoms: _538  and  _541
REMARK  228  A    between atoms: _541  and  _542
REMARK  229  A    between atoms: _545  and  _547
REMARK  230  A    between atoms: _547  and  _548
REMARK  231  A    between atoms: _550  and  _552
REMARK  232  A    between atoms: _552  and  _553
REMARK  233  A    between atoms: _552  and  _555
REMARK  234  A    between atoms: _555  and  _556
REMARK  235  A    between atoms: _556  and  _557
REMARK  236  A    between atoms: _557  and  _558
REMARK                            x       y       z     vdW  Elec       q    Type
REMARK                         _______ _______ _______ _____ _____    ______ ____
ROOT
ATOM      1  C   GLY A   5       7.859  19.778   5.580  0.00  0.00    +0.243 C 
ATOM      2  O   GLY A   5       6.886  19.080   5.588  0.00  0.00    -0.273 OA
ATOM      3  N   ILE A   6       9.010  19.357   5.163  0.00  0.00    -0.297 N 
ATOM      4  H   ILE A   6       9.802  20.024   5.069  0.00  0.00    +0.150 HD
ENDROOT
BRANCH   3   5
ATOM      5  CA  ILE A   6       9.195  17.998   4.836  0.00  0.00    +0.149 C 
BRANCH   5   6
ATOM      6  C   ILE A   6       8.907  17.141   6.088  0.00  0.00    +0.241 C 
ATOM      7  O   ILE A   6       9.382  17.450   7.187  0.00  0.00    -0.273 OA
ATOM      8  N   GLY A   7       8.139  16.093   5.913  0.00  0.00    -0.295 N 
ATOM      9  H   GLY A   7       7.759  15.895   4.966  0.00  0.00    +0.150 HD
BRANCH   8  10
ATOM     10  CA  GLY A   7       7.805  15.197   7.017  0.00  0.00    +0.176 C 
BRANCH  10  11
ATOM     11  C   GLY A   7       6.473  15.570   7.729  0.00  0.00    +0.243 C 
ATOM     12  O   GLY A   7       5.992  14.841   8.524  0.00  0.00    -0.273 OA
ATOM     13  N   GLY A   8       5.926  16.729   7.396  0.00  0.00    -0.295 N 
ATOM     14  H   GLY A   8       6.430  17.359   6.739  0.00  0.00    +0.150 HD
BRANCH  13  15
ATOM     15  CA  GLY A   8       4.591  17.155   7.947  0.00  0.00    +0.176 C 
BRANCH  15  16
ATOM     16  C   GLY A   8       4.716  18.333   8.878  0.00  0.00    +0.243 C 
ATOM     17  N   PHE A   9       3.817  18.400   9.879  0.00  0.00    -0.297 N 
ATOM     18  H   PHE A   9       3.257  17.556  10.114  0.00  0.00    +0.150 HD
ATOM     19  O   GLY A   8       5.596  19.170   8.711  0.00  0.00    -0.273 OA
BRANCH  17  20
ATOM     20  CA  PHE A   9       3.603  19.661  10.664  0.00  0.00    +0.153 C 
BRANCH  20  21
ATOM     21  C   PHE A   9       4.034  19.477  12.103  0.00  0.00    +0.241 C 
ATOM     22  N   ILE A  10       4.460  20.572  12.737  0.00  0.00    -0.298 N 
ATOM     23  H   ILE A  10       4.717  21.411  12.179  0.00  0.00    +0.150 HD
ATOM     24  O   PHE A   9       3.983  18.373  12.637  0.00  0.00    -0.273 OA
BRANCH  22  25
ATOM     25  CA  ILE A  10       4.576  20.624  14.200  0.00  0.00    +0.137 C 
BRANCH  25  26
ATOM     26  C   ILE A  10       3.829  21.836  14.770  0.00  0.00    +0.227 C 
ATOM     27  O   ILE A  10       3.624  22.867  14.065  0.00  0.00    -0.286 OA
ENDBRANCH  25  26
BRANCH  25  28
ATOM     28  CB  ILE A  10       6.065  20.704  14.655  0.00  0.00    +0.026 C 
ATOM     29  CG2 ILE A  10       6.748  19.427  14.395  0.00  0.00    +0.002 C 
BRANCH  28  30
ATOM     30  CG1 ILE A  10       6.769  21.837  13.945  0.00  0.00    +0.002 C 
ATOM     31  CD1 ILE A  10       8.130  22.259  14.618  0.00  0.00    +0.000 C 
ENDBRANCH  28  30
ENDBRANCH  25  28
ENDBRANCH  22  25
ENDBRANCH  20  21
BRANCH  20  32
ATOM     32  CB  PHE A   9       2.131  20.066  10.618  0.00  0.00    +0.055 C 
BRANCH  32  33
ATOM     33  CG  PHE A   9       1.694  20.615   9.295  0.00  0.00    -0.020 A 
ATOM     34  CD2 PHE A   9       1.546  21.966   9.113  0.00  0.00    -0.004 A 
ATOM     35  CE2 PHE A   9       1.145  22.474   7.901  0.00  0.00    -0.000 A 
ATOM     36  CZ  PHE A   9       0.885  21.624   6.850  0.00  0.00    -0.000 A 
ATOM     37  CE1 PHE A   9       1.029  20.254   7.015  0.00  0.00    -0.000 A 
ATOM     38  CD1 PHE A   9       1.426  19.755   8.215  0.00  0.00    -0.004 A 
ENDBRANCH  32  33
ENDBRANCH  20  32
ENDBRANCH  17  20
ENDBRANCH  15  16
ENDBRANCH  13  15
ENDBRANCH  10  11
ENDBRANCH   8  10
ENDBRANCH   5   6
BRANCH   5  39
ATOM     39  CB  ILE A   6      10.664  17.714   4.312  0.00  0.00    +0.027 C 
ATOM     40  CG2 ILE A   6      11.037  16.270   4.546  0.00  0.00    +0.002 C 
BRANCH  39  41
ATOM     41  CG1 ILE A   6      10.766  18.041   2.773  0.00  0.00    +0.002 C 
ATOM     42  CD1 ILE A   6      10.641  19.503   2.458  0.00  0.00    +0.000 C 
ENDBRANCH  39  41
ENDBRANCH   5  39
ENDBRANCH   3   5
BRANCH   1  43
ATOM     43  CA  GLY A   5       7.778  21.205   6.069  0.00  0.00    +0.176 C 
BRANCH  43  45
ATOM     44  C   GLY A   4       6.022  22.511   7.120  0.00  0.00    +0.243 C 
ATOM     45  N   GLY A   5       6.581  21.344   6.884  0.00  0.00    -0.295 N 
ATOM     46  H   GLY A   5       6.152  20.490   7.295  0.00  0.00    +0.150 HD
ATOM     47  O   GLY A   4       6.510  23.595   6.734  0.00  0.00    -0.273 OA
BRANCH  44  48
ATOM     48  CA  GLY A   4       4.719  22.474   7.903  0.00  0.00    +0.176 C 
BRANCH  48  51
ATOM     49  C   ILE A   3       4.326  23.625   9.973  0.00  0.00    +0.241 C 
ATOM     50  O   ILE A   3       4.550  22.632  10.669  0.00  0.00    -0.273 OA
ATOM     51  N   GLY A   4       4.504  23.648   8.649  0.00  0.00    -0.295 N 
ATOM     52  H   GLY A   4       4.483  24.562   8.154  0.00  0.00    +0.150 HD
BRANCH  49  53
ATOM     53  CA  ILE A   3       3.830  24.890  10.578  0.00  0.00    +0.149 C 
BRANCH  53  55
ATOM     54  C   MET A   2       1.784  25.138  11.797  0.00  0.00    +0.241 C 
ATOM     55  N   ILE A   3       3.006  24.642  11.716  0.00  0.00    -0.297 N 
ATOM     56  H   ILE A   3       3.374  24.060  12.496  0.00  0.00    +0.150 HD
ATOM     57  O   MET A   2       1.320  25.888  10.961  0.00  0.00    -0.273 OA
BRANCH  54  58
ATOM     58  CA  MET A   2       0.979  24.732  12.981  0.00  0.00    +0.149 C 
BRANCH  58  61
ATOM     59  C   LYS A   1       0.831  26.399  14.834  0.00  0.00    +0.238 C 
ATOM     60  O   LYS A   1       1.562  25.764  15.541  0.00  0.00    -0.274 OA
ATOM     61  N   MET A   2       0.379  25.938  13.635  0.00  0.00    -0.297 N 
ATOM     62  H   MET A   2      -0.402  26.436  13.162  0.00  0.00    +0.150 HD
BRANCH  59  63
ATOM     63  CA  LYS A   1       0.367  27.761  15.253  0.00  0.00    +0.145 C 
BRANCH  63  64
ATOM     64  N   LYS A   1       0.259  27.790  16.692  0.00  0.00    -0.238 NA
ATOM     65  H   LYS A   1       0.877  27.168  17.252  0.00  0.00    +0.142 HD
ENDBRANCH  63  64
BRANCH  63  66
ATOM     66  CB  LYS A   1       1.400  28.863  14.763  0.00  0.00    +0.026 C 
BRANCH  66  67
ATOM     67  CG  LYS A   1       1.369  29.126  13.299  0.00  0.00    -0.000 C 
BRANCH  67  68
ATOM     68  CD  LYS A   1       2.494  30.078  12.879  0.00  0.00    -0.024 C 
BRANCH  68  69
ATOM     69  CE  LYS A   1       2.376  30.477  11.419  0.00  0.00    -0.086 C 
BRANCH  69  70
ATOM     70  NZ  LYS A   1       1.608  31.713  11.260  0.00  0.00    +0.380 N 
ATOM     71  HZ1 LYS A   1       2.082  32.483  11.775  0.00  0.00    -0.089 HD
ATOM     72  HZ2 LYS A   1       0.651  31.576  11.643  0.00  0.00    -0.089 HD
ATOM     73  HZ3 LYS A   1       1.548  31.955  10.250  0.00  0.00    -0.089 HD
ENDBRANCH  69  70
ENDBRANCH  68  69
ENDBRANCH  67  68
ENDBRANCH  66  67
ENDBRANCH  63  66
ENDBRANCH  59  63
ENDBRANCH  58  61
BRANCH  58  74
ATOM     74  CB  MET A   2      -0.136  23.751  12.536  0.00  0.00    +0.041 C 
BRANCH  74  75
ATOM     75  CG  MET A   2      -0.844  23.113  13.650  0.00  0.00    +0.060 C 
BRANCH  75  76
ATOM     76  SD  MET A   2       0.053  21.729  14.296  0.00  0.00    -0.139 S 
ATOM     77  CE  MET A   2      -0.481  20.441  13.170  0.00  0.00    +0.069 C 
ENDBRANCH  75  76
ENDBRANCH  74  75
ENDBRANCH  58  74
ENDBRANCH  54  58
ENDBRANCH  53  55
BRANCH  53  78
ATOM     78  CB  ILE A   3       5.056  25.803  10.935  0.00  0.00    +0.027 C 
ATOM     79  CG2 ILE A   3       4.587  27.214  11.277  0.00  0.00    +0.002 C 
BRANCH  78  80
ATOM     80  CG1 ILE A   3       5.837  25.212  12.080  0.00  0.00    +0.002 C 
ATOM     81  CD1 ILE A   3       7.116  25.995  12.418  0.00  0.00    +0.000 C 
ENDBRANCH  78  80
ENDBRANCH  53  78
ENDBRANCH  49  53
ENDBRANCH  48  51
ENDBRANCH  44  48
ENDBRANCH  43  45
ENDBRANCH   1  43
TORSDOF 36
REMARK  Name = ../refined-set-2016/4cp7/4cp7_pocket.pdb
REMARK  236 active torsions:
REMARK  status: ('A' for Active; 'I' for Inactive)
REMARK    1  A    between atoms: _1  and  _3
REMARK    2  A    between atoms: _3  and  _4
REMARK    3  A    between atoms: _3  and  _6
REMARK    4  A    between atoms: _6  and  _7
REMARK    5  A    between atoms: _7  and  _8
REMARK    6  A    between atoms: _8  and  _9
REMARK    7  A    between atoms: _18  and  _20
REMARK    8  A    between atoms: _20  and  _21
REMARK    9  A    between atoms: _20  and  _23
REMARK   10  A    between atoms: _23  and  _24
REMARK   11  A    between atoms: _27  and  _29
REMARK   12  A    between atoms: _29  and  _30
REMARK   13  A    between atoms: _29  and  _32
REMARK   14  A    between atoms: _32  and  _33
REMARK   15  A    between atoms: _36  and  _38
REMARK   16  A    between atoms: _38  and  _39
REMARK   17  A    between atoms: _38  and  _41
REMARK   18  A    between atoms: _41  and  _42
REMARK   19  A    between atoms: _45  and  _47
REMARK   20  A    between atoms: _47  and  _48
REMARK   21  A    between atoms: _47  and  _50
REMARK   22  A    between atoms: _50  and  _51
REMARK   23  A    between atoms: _54  and  _56
REMARK   24  A    between atoms: _56  and  _57
REMARK   25  A    between atoms: _59  and  _61
REMARK   26  A    between atoms: _61  and  _62
REMARK   27  A    between atoms: _65  and  _67
REMARK   28  A    between atoms: _67  and  _68
REMARK   29  A    between atoms: _67  and  _70
REMARK   30  A    between atoms: _70  and  _71
REMARK   31  A    between atoms: _74  and  _76
REMARK   32  A    between atoms: _76  and  _77
REMARK   33  A    between atoms: _76  and  _79
REMARK   34  A    between atoms: _79  and  _80
REMARK   35  A    between atoms: _83  and  _85
REMARK   36  A    between atoms: _85  and  _86
REMARK   37  A    between atoms: _85  and  _88
REMARK   38  A    between atoms: _88  and  _89
REMARK   39  A    between atoms: _92  and  _94
REMARK   40  A    between atoms: _94  and  _95
REMARK   41  A    between atoms: _94  and  _97
REMARK   42  A    between atoms: _100  and  _102
REMARK   43  A    between atoms: _102  and  _103
REMARK   44  A    between atoms: _102  and  _105
REMARK   45  A    between atoms: _105  and  _106
REMARK   46  A    between atoms: _106  and  _107
REMARK   47  A    between atoms: _107  and  _108
REMARK   48  A    between atoms: _108  and  _109
REMARK   49  A    between atoms: _113  and  _115
REMARK   50  A    between atoms: _115  and  _116
REMARK   51  A    between atoms: _115  and  _118
REMARK   52  A    between atoms: _118  and  _119
REMARK   53  A    between atoms: _119  and  _120
REMARK   54  A    between atoms: _122  and  _124
REMARK   55  A    between atoms: _124  and  _125
REMARK   56  A    between atoms: _124  and  _127
REMARK   57  A    between atoms: _127  and  _128
REMARK   58  A    between atoms: _131  and  _133
REMARK   59  A    between atoms: _133  and  _134
REMARK   60  A    between atoms: _136  and  _138
REMARK   61  A    between atoms: _138  and  _139
REMARK   62  A    between atoms: _141  and  _143
REMARK   63  A    between atoms: _143  and  _144
REMARK   64  A    between atoms: _143  and  _146
REMARK   65  A    between atoms: _146  and  _147
REMARK   66  A    between atoms: _150  and  _152
REMARK   67  A    between atoms: _152  and  _153
REMARK   68  A    between atoms: _155  and  _157
REMARK   69  A    between atoms: _157  and  _158
REMARK   70  A    between atoms: _160  and  _162
REMARK   71  A    between atoms: _162  and  _163
REMARK   72  A    between atoms: _162  and  _165
REMARK   73  A    between atoms: _165  and  _166
REMARK   74  A    between atoms: _172  and  _174
REMARK   75  A    between atoms: _174  and  _175
REMARK   76  A    between atoms: _174  and  _177
REMARK   77  A    between atoms: _177  and  _178
REMARK   78  A    between atoms: _181  and  _183
REMARK   79  A    between atoms: _183  and  _184
REMARK   80  A    between atoms: _183  and  _186
REMARK   81  A    between atoms: _186  and  _187
REMARK   82  A    between atoms: _190  and  _192
REMARK   83  A    between atoms: _192  and  _193
REMARK   84  A    between atoms: _192  and  _195
REMARK   85  A    between atoms: _195  and  _196
REMARK   86  A    between atoms: _200  and  _201
REMARK   87  A    between atoms: _206  and  _208
REMARK   88  A    between atoms: _208  and  _209
REMARK   89  A    between atoms: _208  and  _211
REMARK   90  A    between atoms: _211  and  _212
REMARK   91  A    between atoms: _215  and  _217
REMARK   92  A    between atoms: _217  and  _218
REMARK   93  A    between atoms: _217  and  _220
REMARK   94  A    between atoms: _220  and  _221
REMARK   95  A    between atoms: _226  and  _228
REMARK   96  A    between atoms: _228  and  _229
REMARK   97  A    between atoms: _228  and  _231
REMARK   98  A    between atoms: _234  and  _236
REMARK   99  A    between atoms: _236  and  _237
REMARK  100  A    between atoms: _236  and  _239
REMARK  101  A    between atoms: _239  and  _240
REMARK  102  A    between atoms: _243  and  _245
REMARK  103  A    between atoms: _245  and  _246
REMARK  104  A    between atoms: _248  and  _250
REMARK  105  A    between atoms: _250  and  _251
REMARK  106  A    between atoms: _250  and  _253
REMARK  107  A    between atoms: _253  and  _254
REMARK  108  A    between atoms: _254  and  _255
REMARK  109  A    between atoms: _255  and  _256
REMARK  110  A    between atoms: _265  and  _267
REMARK  111  A    between atoms: _267  and  _268
REMARK  112  A    between atoms: _267  and  _270
REMARK  113  A    between atoms: _270  and  _271
REMARK  114  A    between atoms: _276  and  _278
REMARK  115  A    between atoms: _278  and  _279
REMARK  116  A    between atoms: _278  and  _281
REMARK  117  A    between atoms: _281  and  _282
REMARK  118  A    between atoms: _282  and  _283
REMARK  119  A    between atoms: _283  and  _284
REMARK  120  A    between atoms: _293  and  _295
REMARK  121  A    between atoms: _295  and  _296
REMARK  122  A    between atoms: _295  and  _298
REMARK  123  A    between atoms: _298  and  _299
REMARK  124  A    between atoms: _302  and  _304
REMARK  125  A    between atoms: _304  and  _305
REMARK  126  A    between atoms: _304  and  _307
REMARK  127  A    between atoms: _307  and  _308
REMARK  128  A    between atoms: _311  and  _313
REMARK  129  A    between atoms: _313  and  _314
REMARK  130  A    between atoms: _313  and  _316
REMARK  131  A    between atoms: _316  and  _317
REMARK  132  A    between atoms: _320  and  _322
REMARK  133  A    between atoms: _322  and  _323
REMARK  134  A    between atoms: _322  and  _325
REMARK  135  A    between atoms: _325  and  _326
REMARK  136  A    between atoms: _329  and  _331
REMARK  137  A    between atoms: _331  and  _332
REMARK  138  A    between atoms: _331  and  _334
REMARK  139  A    between atoms: _334  and  _335
REMARK  140  A    between atoms: _338  and  _340
REMARK  141  A    between atoms: _340  and  _341
REMARK  142  A    between atoms: _343  and  _345
REMARK  143  A    between atoms: _345  and  _346
REMARK  144  A    between atoms: _349  and  _351
REMARK  145  A    between atoms: _351  and  _352
REMARK  146  A    between atoms: _351  and  _354
REMARK  147  A    between atoms: _354  and  _355
REMARK  148  A    between atoms: _358  and  _360
REMARK  149  A    between atoms: _360  and  _361
REMARK  150  A    between atoms: _360  and  _363
REMARK  151  A    between atoms: _363  and  _364
REMARK  152  A    between atoms: _367  and  _369
REMARK  153  A    between atoms: _369  and  _370
REMARK  154  A    between atoms: _369  and  _372
REMARK  155  A    between atoms: _372  and  _373
REMARK  156  A    between atoms: _376  and  _378
REMARK  157  A    between atoms: _378  and  _379
REMARK  158  A    between atoms: _378  and  _381
REMARK  159  A    between atoms: _384  and  _386
REMARK  160  A    between atoms: _386  and  _387
REMARK  161  A    between atoms: _386  and  _389
REMARK  162  A    between atoms: _389  and  _390
REMARK  163  A    between atoms: _390  and  _391
REMARK  164  A    between atoms: _394  and  _396
REMARK  165  A    between atoms: _396  and  _397
REMARK  166  A    between atoms: _396  and  _399
REMARK  167  A    between atoms: _399  and  _400
REMARK  168  A    between atoms: _400  and  _401
REMARK  169  A    between atoms: _401  and  _402
REMARK  170  A    between atoms: _402  and  _403
REMARK  171  A    between atoms: _407  and  _409
REMARK  172  A    between atoms: _409  and  _410
REMARK  173  A    between atoms: _409  and  _412
REMARK  174  A    between atoms: _412  and  _413
REMARK  175  A    between atoms: _413  and  _414
REMARK  176  A    between atoms: _416  and  _418
REMARK  177  A    between atoms: _418  and  _419
REMARK  178  A    between atoms: _418  and  _421
REMARK  179  A    between atoms: _421  and  _422
REMARK  180  A    between atoms: _425  and  _427
REMARK  181  A    between atoms: _427  and  _428
REMARK  182  A    between atoms: _430  and  _432
REMARK  183  A    between atoms: _432  and  _433
REMARK  184  A    between atoms: _435  and  _437
REMARK  185  A    between atoms: _437  and  _438
REMARK  186  A    between atoms: _437  and  _440
REMARK  187  A    between atoms: _440  and  _441
REMARK  188  A    between atoms: _444  and  _446
REMARK  189  A    between atoms: _446  and  _447
REMARK  190  A    between atoms: _449  and  _451
REMARK  191  A    between atoms: _451  and  _452
REMARK  192  A    between atoms: _454  and  _456
REMARK  193  A    between atoms: _456  and  _457
REMARK  194  A    between atoms: _456  and  _459
REMARK  195  A    between atoms: _459  and  _460
REMARK  196  A    between atoms: _466  and  _468
REMARK  197  A    between atoms: _468  and  _469
REMARK  198  A    between atoms: _468  and  _471
REMARK  199  A    between atoms: _471  and  _472
REMARK  200  A    between atoms: _475  and  _477
REMARK  201  A    between atoms: _477  and  _478
REMARK  202  A    between atoms: _477  and  _480
REMARK  203  A    between atoms: _483  and  _485
REMARK  204  A    between atoms: _485  and  _486
REMARK  205  A    between atoms: _485  and  _488
REMARK  206  A    between atoms: _488  and  _489
REMARK  207  A    between atoms: _492  and  _494
REMARK  208  A    between atoms: _494  and  _495
REMARK  209  A    between atoms: _494  and  _497
REMARK  210  A    between atoms: _495  and  _496
REMARK  211  A    between atoms: _495  and  _501
REMARK  212  A    between atoms: _497  and  _498
REMARK  213  A    between atoms: _502  and  _503
REMARK  214  A    between atoms: _508  and  _510
REMARK  215  A    between atoms: _510  and  _511
REMARK  216  A    between atoms: _510  and  _513
REMARK  217  A    between atoms: _513  and  _514
REMARK  218  A    between atoms: _517  and  _519
REMARK  219  A    between atoms: _519  and  _520
REMARK  220  A    between atoms: _519  and  _522
REMARK  221  A    between atoms: _522  and  _523
REMARK  222  A    between atoms: _528  and  _530
REMARK  223  A    between atoms: _530  and  _531
REMARK  224  A    between atoms: _530  and  _533
REMARK  225  A    between atoms: _536  and  _538
REMARK  226  A    between atoms: _538  and  _539
REMARK  227  A    between atoms: _538  and  _541
REMARK  228  A    between atoms: _541  and  _542
REMARK  229  A    between atoms: _545  and  _547
REMARK  230  A    between atoms: _547  and  _548
REMARK  231  A    between atoms: _550  and  _552
REMARK  232  A    between atoms: _552  and  _553
REMARK  233  A    between atoms: _552  and  _555
REMARK  234  A    between atoms: _555  and  _556
REMARK  235  A    between atoms: _556  and  _557
REMARK  236  A    between atoms: _557  and  _558
REMARK                            x       y       z     vdW  Elec       q    Type
REMARK                         _______ _______ _______ _____ _____    ______ ____
ROOT
ATOM      1  CA  LEU A   1       8.120  30.622  16.572  0.00  0.00    +0.133 C 
ENDROOT
BRANCH   1   2
ATOM      2  N   LEU A   1       8.866  31.793  16.228  0.00  0.00    -0.239 NA
ATOM      3  H   LEU A   1       9.523  31.755  15.423  0.00  0.00    +0.142 HD
ENDBRANCH   1   2
BRANCH   1   4
ATOM      4  C   LEU A   1       8.961  29.707  17.459  0.00  0.00    +0.224 C 
ATOM      5  O   LEU A   1      10.142  29.536  17.233  0.00  0.00    -0.287 OA
ENDBRANCH   1   4
BRANCH   1   6
ATOM      6  CB  LEU A   1       7.688  29.867  15.293  0.00  0.00    +0.025 C 
BRANCH   6   7
ATOM      7  CG  LEU A   1       7.002  30.727  14.202  0.00  0.00    +0.002 C 
ATOM      8  CD2 LEU A   1       5.788  31.464  14.776  0.00  0.00    +0.000 C 
ATOM      9  CD1 LEU A   1       6.601  29.866  13.020  0.00  0.00    +0.000 C 
ENDBRANCH   6   7
ENDBRANCH   1   6
TORSDOF 4
REMARK  Name = ../refined-set-2016/4cp7/4cp7_pocket.pdb
REMARK  236 active torsions:
REMARK  status: ('A' for Active; 'I' for Inactive)
REMARK    1  A    between atoms: _1  and  _3
REMARK    2  A    between atoms: _3  and  _4
REMARK    3  A    between atoms: _3  and  _6
REMARK    4  A    between atoms: _6  and  _7
REMARK    5  A    between atoms: _7  and  _8
REMARK    6  A    between atoms: _8  and  _9
REMARK    7  A    between atoms: _18  and  _20
REMARK    8  A    between atoms: _20  and  _21
REMARK    9  A    between atoms: _20  and  _23
REMARK   10  A    between atoms: _23  and  _24
REMARK   11  A    between atoms: _27  and  _29
REMARK   12  A    between atoms: _29  and  _30
REMARK   13  A    between atoms: _29  and  _32
REMARK   14  A    between atoms: _32  and  _33
REMARK   15  A    between atoms: _36  and  _38
REMARK   16  A    between atoms: _38  and  _39
REMARK   17  A    between atoms: _38  and  _41
REMARK   18  A    between atoms: _41  and  _42
REMARK   19  A    between atoms: _45  and  _47
REMARK   20  A    between atoms: _47  and  _48
REMARK   21  A    between atoms: _47  and  _50
REMARK   22  A    between atoms: _50  and  _51
REMARK   23  A    between atoms: _54  and  _56
REMARK   24  A    between atoms: _56  and  _57
REMARK   25  A    between atoms: _59  and  _61
REMARK   26  A    between atoms: _61  and  _62
REMARK   27  A    between atoms: _65  and  _67
REMARK   28  A    between atoms: _67  and  _68
REMARK   29  A    between atoms: _67  and  _70
REMARK   30  A    between atoms: _70  and  _71
REMARK   31  A    between atoms: _74  and  _76
REMARK   32  A    between atoms: _76  and  _77
REMARK   33  A    between atoms: _76  and  _79
REMARK   34  A    between atoms: _79  and  _80
REMARK   35  A    between atoms: _83  and  _85
REMARK   36  A    between atoms: _85  and  _86
REMARK   37  A    between atoms: _85  and  _88
REMARK   38  A    between atoms: _88  and  _89
REMARK   39  A    between atoms: _92  and  _94
REMARK   40  A    between atoms: _94  and  _95
REMARK   41  A    between atoms: _94  and  _97
REMARK   42  A    between atoms: _100  and  _102
REMARK   43  A    between atoms: _102  and  _103
REMARK   44  A    between atoms: _102  and  _105
REMARK   45  A    between atoms: _105  and  _106
REMARK   46  A    between atoms: _106  and  _107
REMARK   47  A    between atoms: _107  and  _108
REMARK   48  A    between atoms: _108  and  _109
REMARK   49  A    between atoms: _113  and  _115
REMARK   50  A    between atoms: _115  and  _116
REMARK   51  A    between atoms: _115  and  _118
REMARK   52  A    between atoms: _118  and  _119
REMARK   53  A    between atoms: _119  and  _120
REMARK   54  A    between atoms: _122  and  _124
REMARK   55  A    between atoms: _124  and  _125
REMARK   56  A    between atoms: _124  and  _127
REMARK   57  A    between atoms: _127  and  _128
REMARK   58  A    between atoms: _131  and  _133
REMARK   59  A    between atoms: _133  and  _134
REMARK   60  A    between atoms: _136  and  _138
REMARK   61  A    between atoms: _138  and  _139
REMARK   62  A    between atoms: _141  and  _143
REMARK   63  A    between atoms: _143  and  _144
REMARK   64  A    between atoms: _143  and  _146
REMARK   65  A    between atoms: _146  and  _147
REMARK   66  A    between atoms: _150  and  _152
REMARK   67  A    between atoms: _152  and  _153
REMARK   68  A    between atoms: _155  and  _157
REMARK   69  A    between atoms: _157  and  _158
REMARK   70  A    between atoms: _160  and  _162
REMARK   71  A    between atoms: _162  and  _163
REMARK   72  A    between atoms: _162  and  _165
REMARK   73  A    between atoms: _165  and  _166
REMARK   74  A    between atoms: _172  and  _174
REMARK   75  A    between atoms: _174  and  _175
REMARK   76  A    between atoms: _174  and  _177
REMARK   77  A    between atoms: _177  and  _178
REMARK   78  A    between atoms: _181  and  _183
REMARK   79  A    between atoms: _183  and  _184
REMARK   80  A    between atoms: _183  and  _186
REMARK   81  A    between atoms: _186  and  _187
REMARK   82  A    between atoms: _190  and  _192
REMARK   83  A    between atoms: _192  and  _193
REMARK   84  A    between atoms: _192  and  _195
REMARK   85  A    between atoms: _195  and  _196
REMARK   86  A    between atoms: _200  and  _201
REMARK   87  A    between atoms: _206  and  _208
REMARK   88  A    between atoms: _208  and  _209
REMARK   89  A    between atoms: _208  and  _211
REMARK   90  A    between atoms: _211  and  _212
REMARK   91  A    between atoms: _215  and  _217
REMARK   92  A    between atoms: _217  and  _218
REMARK   93  A    between atoms: _217  and  _220
REMARK   94  A    between atoms: _220  and  _221
REMARK   95  A    between atoms: _226  and  _228
REMARK   96  A    between atoms: _228  and  _229
REMARK   97  A    between atoms: _228  and  _231
REMARK   98  A    between atoms: _234  and  _236
REMARK   99  A    between atoms: _236  and  _237
REMARK  100  A    between atoms: _236  and  _239
REMARK  101  A    between atoms: _239  and  _240
REMARK  102  A    between atoms: _243  and  _245
REMARK  103  A    between atoms: _245  and  _246
REMARK  104  A    between atoms: _248  and  _250
REMARK  105  A    between atoms: _250  and  _251
REMARK  106  A    between atoms: _250  and  _253
REMARK  107  A    between atoms: _253  and  _254
REMARK  108  A    between atoms: _254  and  _255
REMARK  109  A    between atoms: _255  and  _256
REMARK  110  A    between atoms: _265  and  _267
REMARK  111  A    between atoms: _267  and  _268
REMARK  112  A    between atoms: _267  and  _270
REMARK  113  A    between atoms: _270  and  _271
REMARK  114  A    between atoms: _276  and  _278
REMARK  115  A    between atoms: _278  and  _279
REMARK  116  A    between atoms: _278  and  _281
REMARK  117  A    between atoms: _281  and  _282
REMARK  118  A    between atoms: _282  and  _283
REMARK  119  A    between atoms: _283  and  _284
REMARK  120  A    between atoms: _293  and  _295
REMARK  121  A    between atoms: _295  and  _296
REMARK  122  A    between atoms: _295  and  _298
REMARK  123  A    between atoms: _298  and  _299
REMARK  124  A    between atoms: _302  and  _304
REMARK  125  A    between atoms: _304  and  _305
REMARK  126  A    between atoms: _304  and  _307
REMARK  127  A    between atoms: _307  and  _308
REMARK  128  A    between atoms: _311  and  _313
REMARK  129  A    between atoms: _313  and  _314
REMARK  130  A    between atoms: _313  and  _316
REMARK  131  A    between atoms: _316  and  _317
REMARK  132  A    between atoms: _320  and  _322
REMARK  133  A    between atoms: _322  and  _323
REMARK  134  A    between atoms: _322  and  _325
REMARK  135  A    between atoms: _325  and  _326
REMARK  136  A    between atoms: _329  and  _331
REMARK  137  A    between atoms: _331  and  _332
REMARK  138  A    between atoms: _331  and  _334
REMARK  139  A    between atoms: _334  and  _335
REMARK  140  A    between atoms: _338  and  _340
REMARK  141  A    between atoms: _340  and  _341
REMARK  142  A    between atoms: _343  and  _345
REMARK  143  A    between atoms: _345  and  _346
REMARK  144  A    between atoms: _349  and  _351
REMARK  145  A    between atoms: _351  and  _352
REMARK  146  A    between atoms: _351  and  _354
REMARK  147  A    between atoms: _354  and  _355
REMARK  148  A    between atoms: _358  and  _360
REMARK  149  A    between atoms: _360  and  _361
REMARK  150  A    between atoms: _360  and  _363
REMARK  151  A    between atoms: _363  and  _364
REMARK  152  A    between atoms: _367  and  _369
REMARK  153  A    between atoms: _369  and  _370
REMARK  154  A    between atoms: _369  and  _372
REMARK  155  A    between atoms: _372  and  _373
REMARK  156  A    between atoms: _376  and  _378
REMARK  157  A    between atoms: _378  and  _379
REMARK  158  A    between atoms: _378  and  _381
REMARK  159  A    between atoms: _384  and  _386
REMARK  160  A    between atoms: _386  and  _387
REMARK  161  A    between atoms: _386  and  _389
REMARK  162  A    between atoms: _389  and  _390
REMARK  163  A    between atoms: _390  and  _391
REMARK  164  A    between atoms: _394  and  _396
REMARK  165  A    between atoms: _396  and  _397
REMARK  166  A    between atoms: _396  and  _399
REMARK  167  A    between atoms: _399  and  _400
REMARK  168  A    between atoms: _400  and  _401
REMARK  169  A    between atoms: _401  and  _402
REMARK  170  A    between atoms: _402  and  _403
REMARK  171  A    between atoms: _407  and  _409
REMARK  172  A    between atoms: _409  and  _410
REMARK  173  A    between atoms: _409  and  _412
REMARK  174  A    between atoms: _412  and  _413
REMARK  175  A    between atoms: _413  and  _414
REMARK  176  A    between atoms: _416  and  _418
REMARK  177  A    between atoms: _418  and  _419
REMARK  178  A    between atoms: _418  and  _421
REMARK  179  A    between atoms: _421  and  _422
REMARK  180  A    between atoms: _425  and  _427
REMARK  181  A    between atoms: _427  and  _428
REMARK  182  A    between atoms: _430  and  _432
REMARK  183  A    between atoms: _432  and  _433
REMARK  184  A    between atoms: _435  and  _437
REMARK  185  A    between atoms: _437  and  _438
REMARK  186  A    between atoms: _437  and  _440
REMARK  187  A    between atoms: _440  and  _441
REMARK  188  A    between atoms: _444  and  _446
REMARK  189  A    between atoms: _446  and  _447
REMARK  190  A    between atoms: _449  and  _451
REMARK  191  A    between atoms: _451  and  _452
REMARK  192  A    between atoms: _454  and  _456
REMARK  193  A    between atoms: _456  and  _457
REMARK  194  A    between atoms: _456  and  _459
REMARK  195  A    between atoms: _459  and  _460
REMARK  196  A    between atoms: _466  and  _468
REMARK  197  A    between atoms: _468  and  _469
REMARK  198  A    between atoms: _468  and  _471
REMARK  199  A    between atoms: _471  and  _472
REMARK  200  A    between atoms: _475  and  _477
REMARK  201  A    between atoms: _477  and  _478
REMARK  202  A    between atoms: _477  and  _480
REMARK  203  A    between atoms: _483  and  _485
REMARK  204  A    between atoms: _485  and  _486
REMARK  205  A    between atoms: _485  and  _488
REMARK  206  A    between atoms: _488  and  _489
REMARK  207  A    between atoms: _492  and  _494
REMARK  208  A    between atoms: _494  and  _495
REMARK  209  A    between atoms: _494  and  _497
REMARK  210  A    between atoms: _495  and  _496
REMARK  211  A    between atoms: _495  and  _501
REMARK  212  A    between atoms: _497  and  _498
REMARK  213  A    between atoms: _502  and  _503
REMARK  214  A    between atoms: _508  and  _510
REMARK  215  A    between atoms: _510  and  _511
REMARK  216  A    between atoms: _510  and  _513
REMARK  217  A    between atoms: _513  and  _514
REMARK  218  A    between atoms: _517  and  _519
REMARK  219  A    between atoms: _519  and  _520
REMARK  220  A    between atoms: _519  and  _522
REMARK  221  A    between atoms: _522  and  _523
REMARK  222  A    between atoms: _528  and  _530
REMARK  223  A    between atoms: _530  and  _531
REMARK  224  A    between atoms: _530  and  _533
REMARK  225  A    between atoms: _536  and  _538
REMARK  226  A    between atoms: _538  and  _539
REMARK  227  A    between atoms: _538  and  _541
REMARK  228  A    between atoms: _541  and  _542
REMARK  229  A    between atoms: _545  and  _547
REMARK  230  A    between atoms: _547  and  _548
REMARK  231  A    between atoms: _550  and  _552
REMARK  232  A    between atoms: _552  and  _553
REMARK  233  A    between atoms: _552  and  _555
REMARK  234  A    between atoms: _555  and  _556
REMARK  235  A    between atoms: _556  and  _557
REMARK  236  A    between atoms: _557  and  _558
REMARK                            x       y       z     vdW  Elec       q    Type
REMARK                         _______ _______ _______ _____ _____    ______ ____
ROOT
ATOM      1  C   VAL A   5      15.805  29.756  11.717  0.00  0.00    +0.241 C 
ATOM      2  O   VAL A   5      14.839  30.121  12.349  0.00  0.00    -0.273 OA
ATOM      3  N   ILE A   6      16.605  30.602  11.027  0.00  0.00    -0.297 N 
ATOM      4  H   ILE A   6      17.513  30.249  10.664  0.00  0.00    +0.150 HD
ENDROOT
BRANCH   3   5
ATOM      5  CA  ILE A   6      16.244  31.976  10.776  0.00  0.00    +0.149 C 
BRANCH   5   6
ATOM      6  C   ILE A   6      15.563  32.092   9.429  0.00  0.00    +0.241 C 
ATOM      7  N   GLY A   7      14.290  32.529   9.435  0.00  0.00    -0.295 N 
ATOM      8  H   GLY A   7      13.870  32.856  10.328  0.00  0.00    +0.150 HD
ATOM      9  O   ILE A   6      16.165  31.793   8.394  0.00  0.00    -0.273 OA
BRANCH   7  10
ATOM     10  CA  GLY A   7      13.493  32.554   8.229  0.00  0.00    +0.176 C 
BRANCH  10  11
ATOM     11  C   GLY A   7      13.450  33.937   7.551  0.00  0.00    +0.243 C 
ATOM     12  O   GLY A   7      14.045  34.934   8.057  0.00  0.00    -0.273 OA
ATOM     13  N   ARG A   8      12.760  34.009   6.424  0.00  0.00    -0.297 N 
ATOM     14  H   ARG A   8      12.186  33.194   6.128  0.00  0.00    +0.150 HD
BRANCH  13  15
ATOM     15  CA  ARG A   8      12.786  35.205   5.587  0.00  0.00    +0.149 C 
BRANCH  15  16
ATOM     16  C   ARG A   8      12.312  36.445   6.384  0.00  0.00    +0.241 C 
ATOM     17  N   ASN A   9      11.399  36.227   7.347  0.00  0.00    -0.298 N 
ATOM     18  H   ASN A   9      11.105  35.254   7.564  0.00  0.00    +0.150 HD
ATOM     19  O   ARG A   8      12.767  37.580   6.127  0.00  0.00    -0.273 OA
BRANCH  17  20
ATOM     20  CA  ASN A   9      10.813  37.345   8.095  0.00  0.00    +0.146 C 
BRANCH  20  21
ATOM     21  C   ASN A   9      11.874  38.162   8.838  0.00  0.00    +0.227 C 
ATOM     22  O   ASN A   9      11.682  39.330   9.085  0.00  0.00    -0.286 OA
ENDBRANCH  20  21
BRANCH  20  23
ATOM     23  CB  ASN A   9       9.744  36.851   9.073  0.00  0.00    +0.112 C 
BRANCH  23  24
ATOM     24  CG  ASN A   9      10.309  36.195  10.225  0.00  0.00    +0.222 C 
ATOM     25  ND2 ASN A   9      10.061  36.766  11.429  0.00  0.00    -0.329 N 
ATOM     26 HD21 ASN A   9      10.443  36.337  12.296  0.00  0.00    +0.145 HD
ATOM     27 HD22 ASN A   9       9.489  37.633  11.486  0.00  0.00    +0.145 HD
ATOM     28  OD1 ASN A   9      10.970  35.184  10.103  0.00  0.00    -0.275 OA
ENDBRANCH  23  24
ENDBRANCH  20  23
ENDBRANCH  17  20
ENDBRANCH  15  16
BRANCH  15  29
ATOM     29  CB  ARG A   8      11.899  35.012   4.344  0.00  0.00    +0.033 C 
BRANCH  29  30
ATOM     30  CG  ARG A   8      12.466  34.040   3.315  0.00  0.00    +0.045 C 
BRANCH  30  31
ATOM     31  CD  ARG A   8      11.658  34.061   2.020  0.00  0.00    +0.174 C 
BRANCH  31  32
ATOM     32  NE  ARG A   8      10.300  33.589   2.227  0.00  0.00    -0.265 N 
ATOM     33  HE  ARG A   8      10.152  32.564   2.323  0.00  0.00    +0.259 HD
ATOM     34  CZ  ARG A   8       9.227  34.385   2.302  0.00  0.00    +0.342 C 
ATOM     35  NH2 ARG A   8       8.021  33.859   2.495  0.00  0.00    -0.292 N 
ATOM     36 HH21 ARG A   8       7.912  32.829   2.588  0.00  0.00    +0.255 HD
ATOM     37 HH22 ARG A   8       7.187  34.478   2.553  0.00  0.00    +0.255 HD
ATOM     38  NH1 ARG A   8       9.359  35.707   2.182  0.00  0.00    -0.292 N 
ATOM     39 HH11 ARG A   8       8.521  36.321   2.241  0.00  0.00    +0.255 HD
ATOM     40 HH12 ARG A   8      10.299  36.124   2.029  0.00  0.00    +0.255 HD
ENDBRANCH  31  32
ENDBRANCH  30  31
ENDBRANCH  29  30
ENDBRANCH  15  29
ENDBRANCH  13  15
ENDBRANCH  10  11
ENDBRANCH   7  10
ENDBRANCH   5   6
BRANCH   5  41
ATOM     41  CB  ILE A   6      17.494  32.885  10.757  0.00  0.00    +0.027 C 
ATOM     42  CG2 ILE A   6      17.097  34.290  10.577  0.00  0.00    +0.002 C 
BRANCH  41  43
ATOM     43  CG1 ILE A   6      18.316  32.708  12.041  0.00  0.00    +0.002 C 
ATOM     44  CD1 ILE A   6      17.515  32.744  13.279  0.00  0.00    +0.000 C 
ENDBRANCH  41  43
ENDBRANCH   5  41
ENDBRANCH   3   5
BRANCH   1  45
ATOM     45  CA  VAL A   5      16.196  28.281  11.660  0.00  0.00    +0.149 C 
BRANCH  45  47
ATOM     46  C   ASN A   4      17.179  26.995  13.471  0.00  0.00    +0.241 C 
ATOM     47  N   VAL A   5      16.153  27.653  13.001  0.00  0.00    -0.297 N 
ATOM     48  H   VAL A   5      15.292  27.737  13.578  0.00  0.00    +0.150 HD
ATOM     49  O   ASN A   4      18.237  26.843  12.832  0.00  0.00    -0.273 OA
BRANCH  46  50
ATOM     50  CA  ASN A   4      17.036  26.419  14.831  0.00  0.00    +0.158 C 
BRANCH  50  52
ATOM     51  C   THR A   3      16.560  24.098  14.286  0.00  0.00    +0.243 C 
ATOM     52  N   ASN A   4      17.375  25.004  14.809  0.00  0.00    -0.297 N 
ATOM     53  H   ASN A   4      18.281  24.695  15.215  0.00  0.00    +0.150 HD
ATOM     54  O   THR A   3      15.444  24.388  13.792  0.00  0.00    -0.273 OA
BRANCH  51  55
ATOM     55  CA  THR A   3      17.062  22.624  14.347  0.00  0.00    +0.176 C 
BRANCH  55  58
ATOM     56  C   PRO A   2      16.117  20.481  14.977  0.00  0.00    +0.241 C 
ATOM     57  O   PRO A   2      17.172  20.113  15.434  0.00  0.00    -0.273 OA
ATOM     58  N   THR A   3      15.962  21.666  14.389  0.00  0.00    -0.295 N 
ATOM     59  H   THR A   3      15.049  21.911  13.956  0.00  0.00    +0.150 HD
BRANCH  56  63
ATOM     60  C   THR A   1      13.238  21.163  15.870  0.00  0.00    +0.244 C 
ATOM     61  O   THR A   1      13.929  21.408  16.844  0.00  0.00    -0.273 OA
ATOM     62  N   PRO A   2      13.583  20.266  14.961  0.00  0.00    -0.272 N 
ATOM     63  CA  PRO A   2      14.861  19.547  15.066  0.00  0.00    +0.152 C 
ATOM     64  CB  PRO A   2      14.821  18.566  13.876  0.00  0.00    +0.031 C 
ATOM     65  CG  PRO A   2      13.740  19.045  13.001  0.00  0.00    +0.024 C 
ATOM     66  CD  PRO A   2      12.785  19.827  13.811  0.00  0.00    +0.094 C 
BRANCH  60  67
ATOM     67  CA  THR A   1      11.896  21.904  15.646  0.00  0.00    +0.172 C 
BRANCH  67  68
ATOM     68  N   THR A   1      11.140  21.970  16.874  0.00  0.00    -0.236 NA
ATOM     69  H   THR A   1      11.074  22.872  17.387  0.00  0.00    +0.142 HD
ENDBRANCH  67  68
BRANCH  67  70
ATOM     70  CB  THR A   1      12.182  23.321  15.059  0.00  0.00    +0.135 C 
ATOM     71  CG2 THR A   1      12.877  24.195  16.068  0.00  0.00    +0.034 C 
BRANCH  70  72
ATOM     72  OG1 THR A   1      12.996  23.200  13.897  0.00  0.00    -0.383 OA
ATOM     73  HG1 THR A   1      13.851  22.764  14.139  0.00  0.00    +0.210 HD
ENDBRANCH  70  72
ENDBRANCH  67  70
ENDBRANCH  60  67
ENDBRANCH  56  63
ENDBRANCH  55  58
BRANCH  55  74
ATOM     74  CB  THR A   3      18.057  22.330  13.163  0.00  0.00    +0.137 C 
ATOM     75  CG2 THR A   3      17.472  22.777  11.832  0.00  0.00    +0.034 C 
BRANCH  74  76
ATOM     76  OG1 THR A   3      19.322  23.024  13.404  0.00  0.00    -0.382 OA
ATOM     77  HG1 THR A   3      19.157  23.998  13.462  0.00  0.00    +0.210 HD
ENDBRANCH  74  76
ENDBRANCH  55  74
ENDBRANCH  51  55
ENDBRANCH  50  52
BRANCH  50  78
ATOM     78  CB  ASN A   4      17.963  27.174  15.794  0.00  0.00    +0.114 C 
BRANCH  78  79
ATOM     79  CG  ASN A   4      17.790  26.735  17.257  0.00  0.00    +0.222 C 
ATOM     80  ND2 ASN A   4      18.847  26.979  18.091  0.00  0.00    -0.329 N 
ATOM     81 HD21 ASN A   4      18.792  26.706  19.093  0.00  0.00    +0.145 HD
ATOM     82 HD22 ASN A   4      19.705  27.437  17.723  0.00  0.00    +0.145 HD
ATOM     83  OD1 ASN A   4      16.754  26.197  17.640  0.00  0.00    -0.275 OA
ENDBRANCH  78  79
ENDBRANCH  50  78
ENDBRANCH  46  50
ENDBRANCH  45  47
BRANCH  45  84
ATOM     84  CB  VAL A   5      15.280  27.519  10.626  0.00  0.00    +0.027 C 
ATOM     85  CG2 VAL A   5      13.907  27.566  11.031  0.00  0.00    +0.002 C 
ATOM     86  CG1 VAL A   5      15.751  26.051  10.468  0.00  0.00    +0.002 C 
ENDBRANCH  45  84
ENDBRANCH   1  45
TORSDOF 32
REMARK  Name = ../refined-set-2016/4cp7/4cp7_pocket.pdb
REMARK  236 active torsions:
REMARK  status: ('A' for Active; 'I' for Inactive)
REMARK    1  A    between atoms: _1  and  _3
REMARK    2  A    between atoms: _3  and  _4
REMARK    3  A    between atoms: _3  and  _6
REMARK    4  A    between atoms: _6  and  _7
REMARK    5  A    between atoms: _7  and  _8
REMARK    6  A    between atoms: _8  and  _9
REMARK    7  A    between atoms: _18  and  _20
REMARK    8  A    between atoms: _20  and  _21
REMARK    9  A    between atoms: _20  and  _23
REMARK   10  A    between atoms: _23  and  _24
REMARK   11  A    between atoms: _27  and  _29
REMARK   12  A    between atoms: _29  and  _30
REMARK   13  A    between atoms: _29  and  _32
REMARK   14  A    between atoms: _32  and  _33
REMARK   15  A    between atoms: _36  and  _38
REMARK   16  A    between atoms: _38  and  _39
REMARK   17  A    between atoms: _38  and  _41
REMARK   18  A    between atoms: _41  and  _42
REMARK   19  A    between atoms: _45  and  _47
REMARK   20  A    between atoms: _47  and  _48
REMARK   21  A    between atoms: _47  and  _50
REMARK   22  A    between atoms: _50  and  _51
REMARK   23  A    between atoms: _54  and  _56
REMARK   24  A    between atoms: _56  and  _57
REMARK   25  A    between atoms: _59  and  _61
REMARK   26  A    between atoms: _61  and  _62
REMARK   27  A    between atoms: _65  and  _67
REMARK   28  A    between atoms: _67  and  _68
REMARK   29  A    between atoms: _67  and  _70
REMARK   30  A    between atoms: _70  and  _71
REMARK   31  A    between atoms: _74  and  _76
REMARK   32  A    between atoms: _76  and  _77
REMARK   33  A    between atoms: _76  and  _79
REMARK   34  A    between atoms: _79  and  _80
REMARK   35  A    between atoms: _83  and  _85
REMARK   36  A    between atoms: _85  and  _86
REMARK   37  A    between atoms: _85  and  _88
REMARK   38  A    between atoms: _88  and  _89
REMARK   39  A    between atoms: _92  and  _94
REMARK   40  A    between atoms: _94  and  _95
REMARK   41  A    between atoms: _94  and  _97
REMARK   42  A    between atoms: _100  and  _102
REMARK   43  A    between atoms: _102  and  _103
REMARK   44  A    between atoms: _102  and  _105
REMARK   45  A    between atoms: _105  and  _106
REMARK   46  A    between atoms: _106  and  _107
REMARK   47  A    between atoms: _107  and  _108
REMARK   48  A    between atoms: _108  and  _109
REMARK   49  A    between atoms: _113  and  _115
REMARK   50  A    between atoms: _115  and  _116
REMARK   51  A    between atoms: _115  and  _118
REMARK   52  A    between atoms: _118  and  _119
REMARK   53  A    between atoms: _119  and  _120
REMARK   54  A    between atoms: _122  and  _124
REMARK   55  A    between atoms: _124  and  _125
REMARK   56  A    between atoms: _124  and  _127
REMARK   57  A    between atoms: _127  and  _128
REMARK   58  A    between atoms: _131  and  _133
REMARK   59  A    between atoms: _133  and  _134
REMARK   60  A    between atoms: _136  and  _138
REMARK   61  A    between atoms: _138  and  _139
REMARK   62  A    between atoms: _141  and  _143
REMARK   63  A    between atoms: _143  and  _144
REMARK   64  A    between atoms: _143  and  _146
REMARK   65  A    between atoms: _146  and  _147
REMARK   66  A    between atoms: _150  and  _152
REMARK   67  A    between atoms: _152  and  _153
REMARK   68  A    between atoms: _155  and  _157
REMARK   69  A    between atoms: _157  and  _158
REMARK   70  A    between atoms: _160  and  _162
REMARK   71  A    between atoms: _162  and  _163
REMARK   72  A    between atoms: _162  and  _165
REMARK   73  A    between atoms: _165  and  _166
REMARK   74  A    between atoms: _172  and  _174
REMARK   75  A    between atoms: _174  and  _175
REMARK   76  A    between atoms: _174  and  _177
REMARK   77  A    between atoms: _177  and  _178
REMARK   78  A    between atoms: _181  and  _183
REMARK   79  A    between atoms: _183  and  _184
REMARK   80  A    between atoms: _183  and  _186
REMARK   81  A    between atoms: _186  and  _187
REMARK   82  A    between atoms: _190  and  _192
REMARK   83  A    between atoms: _192  and  _193
REMARK   84  A    between atoms: _192  and  _195
REMARK   85  A    between atoms: _195  and  _196
REMARK   86  A    between atoms: _200  and  _201
REMARK   87  A    between atoms: _206  and  _208
REMARK   88  A    between atoms: _208  and  _209
REMARK   89  A    between atoms: _208  and  _211
REMARK   90  A    between atoms: _211  and  _212
REMARK   91  A    between atoms: _215  and  _217
REMARK   92  A    between atoms: _217  and  _218
REMARK   93  A    between atoms: _217  and  _220
REMARK   94  A    between atoms: _220  and  _221
REMARK   95  A    between atoms: _226  and  _228
REMARK   96  A    between atoms: _228  and  _229
REMARK   97  A    between atoms: _228  and  _231
REMARK   98  A    between atoms: _234  and  _236
REMARK   99  A    between atoms: _236  and  _237
REMARK  100  A    between atoms: _236  and  _239
REMARK  101  A    between atoms: _239  and  _240
REMARK  102  A    between atoms: _243  and  _245
REMARK  103  A    between atoms: _245  and  _246
REMARK  104  A    between atoms: _248  and  _250
REMARK  105  A    between atoms: _250  and  _251
REMARK  106  A    between atoms: _250  and  _253
REMARK  107  A    between atoms: _253  and  _254
REMARK  108  A    between atoms: _254  and  _255
REMARK  109  A    between atoms: _255  and  _256
REMARK  110  A    between atoms: _265  and  _267
REMARK  111  A    between atoms: _267  and  _268
REMARK  112  A    between atoms: _267  and  _270
REMARK  113  A    between atoms: _270  and  _271
REMARK  114  A    between atoms: _276  and  _278
REMARK  115  A    between atoms: _278  and  _279
REMARK  116  A    between atoms: _278  and  _281
REMARK  117  A    between atoms: _281  and  _282
REMARK  118  A    between atoms: _282  and  _283
REMARK  119  A    between atoms: _283  and  _284
REMARK  120  A    between atoms: _293  and  _295
REMARK  121  A    between atoms: _295  and  _296
REMARK  122  A    between atoms: _295  and  _298
REMARK  123  A    between atoms: _298  and  _299
REMARK  124  A    between atoms: _302  and  _304
REMARK  125  A    between atoms: _304  and  _305
REMARK  126  A    between atoms: _304  and  _307
REMARK  127  A    between atoms: _307  and  _308
REMARK  128  A    between atoms: _311  and  _313
REMARK  129  A    between atoms: _313  and  _314
REMARK  130  A    between atoms: _313  and  _316
REMARK  131  A    between atoms: _316  and  _317
REMARK  132  A    between atoms: _320  and  _322
REMARK  133  A    between atoms: _322  and  _323
REMARK  134  A    between atoms: _322  and  _325
REMARK  135  A    between atoms: _325  and  _326
REMARK  136  A    between atoms: _329  and  _331
REMARK  137  A    between atoms: _331  and  _332
REMARK  138  A    between atoms: _331  and  _334
REMARK  139  A    between atoms: _334  and  _335
REMARK  140  A    between atoms: _338  and  _340
REMARK  141  A    between atoms: _340  and  _341
REMARK  142  A    between atoms: _343  and  _345
REMARK  143  A    between atoms: _345  and  _346
REMARK  144  A    between atoms: _349  and  _351
REMARK  145  A    between atoms: _351  and  _352
REMARK  146  A    between atoms: _351  and  _354
REMARK  147  A    between atoms: _354  and  _355
REMARK  148  A    between atoms: _358  and  _360
REMARK  149  A    between atoms: _360  and  _361
REMARK  150  A    between atoms: _360  and  _363
REMARK  151  A    between atoms: _363  and  _364
REMARK  152  A    between atoms: _367  and  _369
REMARK  153  A    between atoms: _369  and  _370
REMARK  154  A    between atoms: _369  and  _372
REMARK  155  A    between atoms: _372  and  _373
REMARK  156  A    between atoms: _376  and  _378
REMARK  157  A    between atoms: _378  and  _379
REMARK  158  A    between atoms: _378  and  _381
REMARK  159  A    between atoms: _384  and  _386
REMARK  160  A    between atoms: _386  and  _387
REMARK  161  A    between atoms: _386  and  _389
REMARK  162  A    between atoms: _389  and  _390
REMARK  163  A    between atoms: _390  and  _391
REMARK  164  A    between atoms: _394  and  _396
REMARK  165  A    between atoms: _396  and  _397
REMARK  166  A    between atoms: _396  and  _399
REMARK  167  A    between atoms: _399  and  _400
REMARK  168  A    between atoms: _400  and  _401
REMARK  169  A    between atoms: _401  and  _402
REMARK  170  A    between atoms: _402  and  _403
REMARK  171  A    between atoms: _407  and  _409
REMARK  172  A    between atoms: _409  and  _410
REMARK  173  A    between atoms: _409  and  _412
REMARK  174  A    between atoms: _412  and  _413
REMARK  175  A    between atoms: _413  and  _414
REMARK  176  A    between atoms: _416  and  _418
REMARK  177  A    between atoms: _418  and  _419
REMARK  178  A    between atoms: _418  and  _421
REMARK  179  A    between atoms: _421  and  _422
REMARK  180  A    between atoms: _425  and  _427
REMARK  181  A    between atoms: _427  and  _428
REMARK  182  A    between atoms: _430  and  _432
REMARK  183  A    between atoms: _432  and  _433
REMARK  184  A    between atoms: _435  and  _437
REMARK  185  A    between atoms: _437  and  _438
REMARK  186  A    between atoms: _437  and  _440
REMARK  187  A    between atoms: _440  and  _441
REMARK  188  A    between atoms: _444  and  _446
REMARK  189  A    between atoms: _446  and  _447
REMARK  190  A    between atoms: _449  and  _451
REMARK  191  A    between atoms: _451  and  _452
REMARK  192  A    between atoms: _454  and  _456
REMARK  193  A    between atoms: _456  and  _457
REMARK  194  A    between atoms: _456  and  _459
REMARK  195  A    between atoms: _459  and  _460
REMARK  196  A    between atoms: _466  and  _468
REMARK  197  A    between atoms: _468  and  _469
REMARK  198  A    between atoms: _468  and  _471
REMARK  199  A    between atoms: _471  and  _472
REMARK  200  A    between atoms: _475  and  _477
REMARK  201  A    between atoms: _477  and  _478
REMARK  202  A    between atoms: _477  and  _480
REMARK  203  A    between atoms: _483  and  _485
REMARK  204  A    between atoms: _485  and  _486
REMARK  205  A    between atoms: _485  and  _488
REMARK  206  A    between atoms: _488  and  _489
REMARK  207  A    between atoms: _492  and  _494
REMARK  208  A    between atoms: _494  and  _495
REMARK  209  A    between atoms: _494  and  _497
REMARK  210  A    between atoms: _495  and  _496
REMARK  211  A    between atoms: _495  and  _501
REMARK  212  A    between atoms: _497  and  _498
REMARK  213  A    between atoms: _502  and  _503
REMARK  214  A    between atoms: _508  and  _510
REMARK  215  A    between atoms: _510  and  _511
REMARK  216  A    between atoms: _510  and  _513
REMARK  217  A    between atoms: _513  and  _514
REMARK  218  A    between atoms: _517  and  _519
REMARK  219  A    between atoms: _519  and  _520
REMARK  220  A    between atoms: _519  and  _522
REMARK  221  A    between atoms: _522  and  _523
REMARK  222  A    between atoms: _528  and  _530
REMARK  223  A    between atoms: _530  and  _531
REMARK  224  A    between atoms: _530  and  _533
REMARK  225  A    between atoms: _536  and  _538
REMARK  226  A    between atoms: _538  and  _539
REMARK  227  A    between atoms: _538  and  _541
REMARK  228  A    between atoms: _541  and  _542
REMARK  229  A    between atoms: _545  and  _547
REMARK  230  A    between atoms: _547  and  _548
REMARK  231  A    between atoms: _550  and  _552
REMARK  232  A    between atoms: _552  and  _553
REMARK  233  A    between atoms: _552  and  _555
REMARK  234  A    between atoms: _555  and  _556
REMARK  235  A    between atoms: _556  and  _557
REMARK  236  A    between atoms: _557  and  _558
REMARK                            x       y       z     vdW  Elec       q    Type
REMARK                         _______ _______ _______ _____ _____    ______ ____
ROOT
ATOM      1  NE  ARG A   1       6.230  30.263   0.763  0.00  0.00    -0.265 N 
ATOM      2  HE  ARG A   1       6.653  30.592   1.654  0.00  0.00    +0.259 HD
ATOM      3  CZ  ARG A   1       5.090  29.583   0.830  0.00  0.00    +0.342 C 
ATOM      4  NH2 ARG A   1       4.521  29.341   2.021  0.00  0.00    -0.292 N 
ATOM      5 HH21 ARG A   1       4.972  29.686   2.892  0.00  0.00    +0.255 HD
ATOM      6 HH22 ARG A   1       3.629  28.809   2.073  0.00  0.00    +0.255 HD
ATOM      7  NH1 ARG A   1       4.509  29.142  -0.283  0.00  0.00    -0.292 N 
ATOM      8 HH11 ARG A   1       3.617  28.610  -0.228  0.00  0.00    +0.255 HD
ATOM      9 HH12 ARG A   1       4.947  29.329  -1.208  0.00  0.00    +0.255 HD
ENDROOT
BRANCH   1  10
ATOM     10  CD  ARG A   1       6.930  30.580  -0.485  0.00  0.00    +0.174 C 
BRANCH  10  11
ATOM     11  CG  ARG A   1       7.822  31.769  -0.326  0.00  0.00    +0.045 C 
BRANCH  11  12
ATOM     12  CB  ARG A   1       8.516  32.107  -1.581  0.00  0.00    +0.029 C 
BRANCH  12  13
ATOM     13  CA  ARG A   1       9.543  33.244  -1.436  0.00  0.00    +0.133 C 
BRANCH  13  14
ATOM     14  N   ARG A   1       8.854  34.548  -1.228  0.00  0.00    -0.239 NA
ATOM     15  H   ARG A   1       7.816  34.574  -1.175  0.00  0.00    +0.142 HD
ENDBRANCH  13  14
BRANCH  13  16
ATOM     16  C   ARG A   1      10.429  33.315  -2.686  0.00  0.00    +0.224 C 
ATOM     17  O   ARG A   1       9.985  33.760  -3.737  0.00  0.00    -0.287 OA
ENDBRANCH  13  16
ENDBRANCH  12  13
ENDBRANCH  11  12
ENDBRANCH  10  11
ENDBRANCH   1  10
TORSDOF 6
REMARK  Name = ../refined-set-2016/4cp7/4cp7_pocket.pdb
REMARK  236 active torsions:
REMARK  status: ('A' for Active; 'I' for Inactive)
REMARK    1  A    between atoms: _1  and  _3
REMARK    2  A    between atoms: _3  and  _4
REMARK    3  A    between atoms: _3  and  _6
REMARK    4  A    between atoms: _6  and  _7
REMARK    5  A    between atoms: _7  and  _8
REMARK    6  A    between atoms: _8  and  _9
REMARK    7  A    between atoms: _18  and  _20
REMARK    8  A    between atoms: _20  and  _21
REMARK    9  A    between atoms: _20  and  _23
REMARK   10  A    between atoms: _23  and  _24
REMARK   11  A    between atoms: _27  and  _29
REMARK   12  A    between atoms: _29  and  _30
REMARK   13  A    between atoms: _29  and  _32
REMARK   14  A    between atoms: _32  and  _33
REMARK   15  A    between atoms: _36  and  _38
REMARK   16  A    between atoms: _38  and  _39
REMARK   17  A    between atoms: _38  and  _41
REMARK   18  A    between atoms: _41  and  _42
REMARK   19  A    between atoms: _45  and  _47
REMARK   20  A    between atoms: _47  and  _48
REMARK   21  A    between atoms: _47  and  _50
REMARK   22  A    between atoms: _50  and  _51
REMARK   23  A    between atoms: _54  and  _56
REMARK   24  A    between atoms: _56  and  _57
REMARK   25  A    between atoms: _59  and  _61
REMARK   26  A    between atoms: _61  and  _62
REMARK   27  A    between atoms: _65  and  _67
REMARK   28  A    between atoms: _67  and  _68
REMARK   29  A    between atoms: _67  and  _70
REMARK   30  A    between atoms: _70  and  _71
REMARK   31  A    between atoms: _74  and  _76
REMARK   32  A    between atoms: _76  and  _77
REMARK   33  A    between atoms: _76  and  _79
REMARK   34  A    between atoms: _79  and  _80
REMARK   35  A    between atoms: _83  and  _85
REMARK   36  A    between atoms: _85  and  _86
REMARK   37  A    between atoms: _85  and  _88
REMARK   38  A    between atoms: _88  and  _89
REMARK   39  A    between atoms: _92  and  _94
REMARK   40  A    between atoms: _94  and  _95
REMARK   41  A    between atoms: _94  and  _97
REMARK   42  A    between atoms: _100  and  _102
REMARK   43  A    between atoms: _102  and  _103
REMARK   44  A    between atoms: _102  and  _105
REMARK   45  A    between atoms: _105  and  _106
REMARK   46  A    between atoms: _106  and  _107
REMARK   47  A    between atoms: _107  and  _108
REMARK   48  A    between atoms: _108  and  _109
REMARK   49  A    between atoms: _113  and  _115
REMARK   50  A    between atoms: _115  and  _116
REMARK   51  A    between atoms: _115  and  _118
REMARK   52  A    between atoms: _118  and  _119
REMARK   53  A    between atoms: _119  and  _120
REMARK   54  A    between atoms: _122  and  _124
REMARK   55  A    between atoms: _124  and  _125
REMARK   56  A    between atoms: _124  and  _127
REMARK   57  A    between atoms: _127  and  _128
REMARK   58  A    between atoms: _131  and  _133
REMARK   59  A    between atoms: _133  and  _134
REMARK   60  A    between atoms: _136  and  _138
REMARK   61  A    between atoms: _138  and  _139
REMARK   62  A    between atoms: _141  and  _143
REMARK   63  A    between atoms: _143  and  _144
REMARK   64  A    between atoms: _143  and  _146
REMARK   65  A    between atoms: _146  and  _147
REMARK   66  A    between atoms: _150  and  _152
REMARK   67  A    between atoms: _152  and  _153
REMARK   68  A    between atoms: _155  and  _157
REMARK   69  A    between atoms: _157  and  _158
REMARK   70  A    between atoms: _160  and  _162
REMARK   71  A    between atoms: _162  and  _163
REMARK   72  A    between atoms: _162  and  _165
REMARK   73  A    between atoms: _165  and  _166
REMARK   74  A    between atoms: _172  and  _174
REMARK   75  A    between atoms: _174  and  _175
REMARK   76  A    between atoms: _174  and  _177
REMARK   77  A    between atoms: _177  and  _178
REMARK   78  A    between atoms: _181  and  _183
REMARK   79  A    between atoms: _183  and  _184
REMARK   80  A    between atoms: _183  and  _186
REMARK   81  A    between atoms: _186  and  _187
REMARK   82  A    between atoms: _190  and  _192
REMARK   83  A    between atoms: _192  and  _193
REMARK   84  A    between atoms: _192  and  _195
REMARK   85  A    between atoms: _195  and  _196
REMARK   86  A    between atoms: _200  and  _201
REMARK   87  A    between atoms: _206  and  _208
REMARK   88  A    between atoms: _208  and  _209
REMARK   89  A    between atoms: _208  and  _211
REMARK   90  A    between atoms: _211  and  _212
REMARK   91  A    between atoms: _215  and  _217
REMARK   92  A    between atoms: _217  and  _218
REMARK   93  A    between atoms: _217  and  _220
REMARK   94  A    between atoms: _220  and  _221
REMARK   95  A    between atoms: _226  and  _228
REMARK   96  A    between atoms: _228  and  _229
REMARK   97  A    between atoms: _228  and  _231
REMARK   98  A    between atoms: _234  and  _236
REMARK   99  A    between atoms: _236  and  _237
REMARK  100  A    between atoms: _236  and  _239
REMARK  101  A    between atoms: _239  and  _240
REMARK  102  A    between atoms: _243  and  _245
REMARK  103  A    between atoms: _245  and  _246
REMARK  104  A    between atoms: _248  and  _250
REMARK  105  A    between atoms: _250  and  _251
REMARK  106  A    between atoms: _250  and  _253
REMARK  107  A    between atoms: _253  and  _254
REMARK  108  A    between atoms: _254  and  _255
REMARK  109  A    between atoms: _255  and  _256
REMARK  110  A    between atoms: _265  and  _267
REMARK  111  A    between atoms: _267  and  _268
REMARK  112  A    between atoms: _267  and  _270
REMARK  113  A    between atoms: _270  and  _271
REMARK  114  A    between atoms: _276  and  _278
REMARK  115  A    between atoms: _278  and  _279
REMARK  116  A    between atoms: _278  and  _281
REMARK  117  A    between atoms: _281  and  _282
REMARK  118  A    between atoms: _282  and  _283
REMARK  119  A    between atoms: _283  and  _284
REMARK  120  A    between atoms: _293  and  _295
REMARK  121  A    between atoms: _295  and  _296
REMARK  122  A    between atoms: _295  and  _298
REMARK  123  A    between atoms: _298  and  _299
REMARK  124  A    between atoms: _302  and  _304
REMARK  125  A    between atoms: _304  and  _305
REMARK  126  A    between atoms: _304  and  _307
REMARK  127  A    between atoms: _307  and  _308
REMARK  128  A    between atoms: _311  and  _313
REMARK  129  A    between atoms: _313  and  _314
REMARK  130  A    between atoms: _313  and  _316
REMARK  131  A    between atoms: _316  and  _317
REMARK  132  A    between atoms: _320  and  _322
REMARK  133  A    between atoms: _322  and  _323
REMARK  134  A    between atoms: _322  and  _325
REMARK  135  A    between atoms: _325  and  _326
REMARK  136  A    between atoms: _329  and  _331
REMARK  137  A    between atoms: _331  and  _332
REMARK  138  A    between atoms: _331  and  _334
REMARK  139  A    between atoms: _334  and  _335
REMARK  140  A    between atoms: _338  and  _340
REMARK  141  A    between atoms: _340  and  _341
REMARK  142  A    between atoms: _343  and  _345
REMARK  143  A    between atoms: _345  and  _346
REMARK  144  A    between atoms: _349  and  _351
REMARK  145  A    between atoms: _351  and  _352
REMARK  146  A    between atoms: _351  and  _354
REMARK  147  A    between atoms: _354  and  _355
REMARK  148  A    between atoms: _358  and  _360
REMARK  149  A    between atoms: _360  and  _361
REMARK  150  A    between atoms: _360  and  _363
REMARK  151  A    between atoms: _363  and  _364
REMARK  152  A    between atoms: _367  and  _369
REMARK  153  A    between atoms: _369  and  _370
REMARK  154  A    between atoms: _369  and  _372
REMARK  155  A    between atoms: _372  and  _373
REMARK  156  A    between atoms: _376  and  _378
REMARK  157  A    between atoms: _378  and  _379
REMARK  158  A    between atoms: _378  and  _381
REMARK  159  A    between atoms: _384  and  _386
REMARK  160  A    between atoms: _386  and  _387
REMARK  161  A    between atoms: _386  and  _389
REMARK  162  A    between atoms: _389  and  _390
REMARK  163  A    between atoms: _390  and  _391
REMARK  164  A    between atoms: _394  and  _396
REMARK  165  A    between atoms: _396  and  _397
REMARK  166  A    between atoms: _396  and  _399
REMARK  167  A    between atoms: _399  and  _400
REMARK  168  A    between atoms: _400  and  _401
REMARK  169  A    between atoms: _401  and  _402
REMARK  170  A    between atoms: _402  and  _403
REMARK  171  A    between atoms: _407  and  _409
REMARK  172  A    between atoms: _409  and  _410
REMARK  173  A    between atoms: _409  and  _412
REMARK  174  A    between atoms: _412  and  _413
REMARK  175  A    between atoms: _413  and  _414
REMARK  176  A    between atoms: _416  and  _418
REMARK  177  A    between atoms: _418  and  _419
REMARK  178  A    between atoms: _418  and  _421
REMARK  179  A    between atoms: _421  and  _422
REMARK  180  A    between atoms: _425  and  _427
REMARK  181  A    between atoms: _427  and  _428
REMARK  182  A    between atoms: _430  and  _432
REMARK  183  A    between atoms: _432  and  _433
REMARK  184  A    between atoms: _435  and  _437
REMARK  185  A    between atoms: _437  and  _438
REMARK  186  A    between atoms: _437  and  _440
REMARK  187  A    between atoms: _440  and  _441
REMARK  188  A    between atoms: _444  and  _446
REMARK  189  A    between atoms: _446  and  _447
REMARK  190  A    between atoms: _449  and  _451
REMARK  191  A    between atoms: _451  and  _452
REMARK  192  A    between atoms: _454  and  _456
REMARK  193  A    between atoms: _456  and  _457
REMARK  194  A    between atoms: _456  and  _459
REMARK  195  A    between atoms: _459  and  _460
REMARK  196  A    between atoms: _466  and  _468
REMARK  197  A    between atoms: _468  and  _469
REMARK  198  A    between atoms: _468  and  _471
REMARK  199  A    between atoms: _471  and  _472
REMARK  200  A    between atoms: _475  and  _477
REMARK  201  A    between atoms: _477  and  _478
REMARK  202  A    between atoms: _477  and  _480
REMARK  203  A    between atoms: _483  and  _485
REMARK  204  A    between atoms: _485  and  _486
REMARK  205  A    between atoms: _485  and  _488
REMARK  206  A    between atoms: _488  and  _489
REMARK  207  A    between atoms: _492  and  _494
REMARK  208  A    between atoms: _494  and  _495
REMARK  209  A    between atoms: _494  and  _497
REMARK  210  A    between atoms: _495  and  _496
REMARK  211  A    between atoms: _495  and  _501
REMARK  212  A    between atoms: _497  and  _498
REMARK  213  A    between atoms: _502  and  _503
REMARK  214  A    between atoms: _508  and  _510
REMARK  215  A    between atoms: _510  and  _511
REMARK  216  A    between atoms: _510  and  _513
REMARK  217  A    between atoms: _513  and  _514
REMARK  218  A    between atoms: _517  and  _519
REMARK  219  A    between atoms: _519  and  _520
REMARK  220  A    between atoms: _519  and  _522
REMARK  221  A    between atoms: _522  and  _523
REMARK  222  A    between atoms: _528  and  _530
REMARK  223  A    between atoms: _530  and  _531
REMARK  224  A    between atoms: _530  and  _533
REMARK  225  A    between atoms: _536  and  _538
REMARK  226  A    between atoms: _538  and  _539
REMARK  227  A    between atoms: _538  and  _541
REMARK  228  A    between atoms: _541  and  _542
REMARK  229  A    between atoms: _545  and  _547
REMARK  230  A    between atoms: _547  and  _548
REMARK  231  A    between atoms: _550  and  _552
REMARK  232  A    between atoms: _552  and  _553
REMARK  233  A    between atoms: _552  and  _555
REMARK  234  A    between atoms: _555  and  _556
REMARK  235  A    between atoms: _556  and  _557
REMARK  236  A    between atoms: _557  and  _558
REMARK                            x       y       z     vdW  Elec       q    Type
REMARK                         _______ _______ _______ _____ _____    ______ ____
ROOT
ATOM      1  CA  LEU A   1      10.804  30.828  -6.340  0.00  0.00    +0.101 C 
ENDROOT
BRANCH   1   2
ATOM      2  N   LEU A   1      11.198  31.821  -5.369  0.00  0.00    -0.244 NA
ATOM      3  H   LEU A   1      10.587  32.649  -5.220  0.00  0.00    +0.141 HD
ENDBRANCH   1   2
BRANCH   1   4
ATOM      4  C   LEU A   1      11.389  31.153  -7.670  0.00  0.00    +0.199 C 
ATOM      5  O   LEU A   1      11.371  32.361  -8.122  0.00  0.00    -0.219 OA
ENDBRANCH   1   4
BRANCH   1   6
ATOM      6  CB  LEU A   1       9.241  30.756  -6.444  0.00  0.00    +0.020 C 
BRANCH   6   7
ATOM      7  CG  LEU A   1       8.486  30.329  -5.172  0.00  0.00    +0.001 C 
ATOM      8  CD2 LEU A   1       8.783  28.881  -4.829  0.00  0.00    +0.000 C 
ATOM      9  CD1 LEU A   1       6.983  30.538  -5.338  0.00  0.00    +0.000 C 
ENDBRANCH   6   7
ENDBRANCH   1   6
TORSDOF 4
REMARK  Name = ../refined-set-2016/4cp7/4cp7_pocket.pdb
REMARK  236 active torsions:
REMARK  status: ('A' for Active; 'I' for Inactive)
REMARK    1  A    between atoms: _1  and  _3
REMARK    2  A    between atoms: _3  and  _4
REMARK    3  A    between atoms: _3  and  _6
REMARK    4  A    between atoms: _6  and  _7
REMARK    5  A    between atoms: _7  and  _8
REMARK    6  A    between atoms: _8  and  _9
REMARK    7  A    between atoms: _18  and  _20
REMARK    8  A    between atoms: _20  and  _21
REMARK    9  A    between atoms: _20  and  _23
REMARK   10  A    between atoms: _23  and  _24
REMARK   11  A    between atoms: _27  and  _29
REMARK   12  A    between atoms: _29  and  _30
REMARK   13  A    between atoms: _29  and  _32
REMARK   14  A    between atoms: _32  and  _33
REMARK   15  A    between atoms: _36  and  _38
REMARK   16  A    between atoms: _38  and  _39
REMARK   17  A    between atoms: _38  and  _41
REMARK   18  A    between atoms: _41  and  _42
REMARK   19  A    between atoms: _45  and  _47
REMARK   20  A    between atoms: _47  and  _48
REMARK   21  A    between atoms: _47  and  _50
REMARK   22  A    between atoms: _50  and  _51
REMARK   23  A    between atoms: _54  and  _56
REMARK   24  A    between atoms: _56  and  _57
REMARK   25  A    between atoms: _59  and  _61
REMARK   26  A    between atoms: _61  and  _62
REMARK   27  A    between atoms: _65  and  _67
REMARK   28  A    between atoms: _67  and  _68
REMARK   29  A    between atoms: _67  and  _70
REMARK   30  A    between atoms: _70  and  _71
REMARK   31  A    between atoms: _74  and  _76
REMARK   32  A    between atoms: _76  and  _77
REMARK   33  A    between atoms: _76  and  _79
REMARK   34  A    between atoms: _79  and  _80
REMARK   35  A    between atoms: _83  and  _85
REMARK   36  A    between atoms: _85  and  _86
REMARK   37  A    between atoms: _85  and  _88
REMARK   38  A    between atoms: _88  and  _89
REMARK   39  A    between atoms: _92  and  _94
REMARK   40  A    between atoms: _94  and  _95
REMARK   41  A    between atoms: _94  and  _97
REMARK   42  A    between atoms: _100  and  _102
REMARK   43  A    between atoms: _102  and  _103
REMARK   44  A    between atoms: _102  and  _105
REMARK   45  A    between atoms: _105  and  _106
REMARK   46  A    between atoms: _106  and  _107
REMARK   47  A    between atoms: _107  and  _108
REMARK   48  A    between atoms: _108  and  _109
REMARK   49  A    between atoms: _113  and  _115
REMARK   50  A    between atoms: _115  and  _116
REMARK   51  A    between atoms: _115  and  _118
REMARK   52  A    between atoms: _118  and  _119
REMARK   53  A    between atoms: _119  and  _120
REMARK   54  A    between atoms: _122  and  _124
REMARK   55  A    between atoms: _124  and  _125
REMARK   56  A    between atoms: _124  and  _127
REMARK   57  A    between atoms: _127  and  _128
REMARK   58  A    between atoms: _131  and  _133
REMARK   59  A    between atoms: _133  and  _134
REMARK   60  A    between atoms: _136  and  _138
REMARK   61  A    between atoms: _138  and  _139
REMARK   62  A    between atoms: _141  and  _143
REMARK   63  A    between atoms: _143  and  _144
REMARK   64  A    between atoms: _143  and  _146
REMARK   65  A    between atoms: _146  and  _147
REMARK   66  A    between atoms: _150  and  _152
REMARK   67  A    between atoms: _152  and  _153
REMARK   68  A    between atoms: _155  and  _157
REMARK   69  A    between atoms: _157  and  _158
REMARK   70  A    between atoms: _160  and  _162
REMARK   71  A    between atoms: _162  and  _163
REMARK   72  A    between atoms: _162  and  _165
REMARK   73  A    between atoms: _165  and  _166
REMARK   74  A    between atoms: _172  and  _174
REMARK   75  A    between atoms: _174  and  _175
REMARK   76  A    between atoms: _174  and  _177
REMARK   77  A    between atoms: _177  and  _178
REMARK   78  A    between atoms: _181  and  _183
REMARK   79  A    between atoms: _183  and  _184
REMARK   80  A    between atoms: _183  and  _186
REMARK   81  A    between atoms: _186  and  _187
REMARK   82  A    between atoms: _190  and  _192
REMARK   83  A    between atoms: _192  and  _193
REMARK   84  A    between atoms: _192  and  _195
REMARK   85  A    between atoms: _195  and  _196
REMARK   86  A    between atoms: _200  and  _201
REMARK   87  A    between atoms: _206  and  _208
REMARK   88  A    between atoms: _208  and  _209
REMARK   89  A    between atoms: _208  and  _211
REMARK   90  A    between atoms: _211  and  _212
REMARK   91  A    between atoms: _215  and  _217
REMARK   92  A    between atoms: _217  and  _218
REMARK   93  A    between atoms: _217  and  _220
REMARK   94  A    between atoms: _220  and  _221
REMARK   95  A    between atoms: _226  and  _228
REMARK   96  A    between atoms: _228  and  _229
REMARK   97  A    between atoms: _228  and  _231
REMARK   98  A    between atoms: _234  and  _236
REMARK   99  A    between atoms: _236  and  _237
REMARK  100  A    between atoms: _236  and  _239
REMARK  101  A    between atoms: _239  and  _240
REMARK  102  A    between atoms: _243  and  _245
REMARK  103  A    between atoms: _245  and  _246
REMARK  104  A    between atoms: _248  and  _250
REMARK  105  A    between atoms: _250  and  _251
REMARK  106  A    between atoms: _250  and  _253
REMARK  107  A    between atoms: _253  and  _254
REMARK  108  A    between atoms: _254  and  _255
REMARK  109  A    between atoms: _255  and  _256
REMARK  110  A    between atoms: _265  and  _267
REMARK  111  A    between atoms: _267  and  _268
REMARK  112  A    between atoms: _267  and  _270
REMARK  113  A    between atoms: _270  and  _271
REMARK  114  A    between atoms: _276  and  _278
REMARK  115  A    between atoms: _278  and  _279
REMARK  116  A    between atoms: _278  and  _281
REMARK  117  A    between atoms: _281  and  _282
REMARK  118  A    between atoms: _282  and  _283
REMARK  119  A    between atoms: _283  and  _284
REMARK  120  A    between atoms: _293  and  _295
REMARK  121  A    between atoms: _295  and  _296
REMARK  122  A    between atoms: _295  and  _298
REMARK  123  A    between atoms: _298  and  _299
REMARK  124  A    between atoms: _302  and  _304
REMARK  125  A    between atoms: _304  and  _305
REMARK  126  A    between atoms: _304  and  _307
REMARK  127  A    between atoms: _307  and  _308
REMARK  128  A    between atoms: _311  and  _313
REMARK  129  A    between atoms: _313  and  _314
REMARK  130  A    between atoms: _313  and  _316
REMARK  131  A    between atoms: _316  and  _317
REMARK  132  A    between atoms: _320  and  _322
REMARK  133  A    between atoms: _322  and  _323
REMARK  134  A    between atoms: _322  and  _325
REMARK  135  A    between atoms: _325  and  _326
REMARK  136  A    between atoms: _329  and  _331
REMARK  137  A    between atoms: _331  and  _332
REMARK  138  A    between atoms: _331  and  _334
REMARK  139  A    between atoms: _334  and  _335
REMARK  140  A    between atoms: _338  and  _340
REMARK  141  A    between atoms: _340  and  _341
REMARK  142  A    between atoms: _343  and  _345
REMARK  143  A    between atoms: _345  and  _346
REMARK  144  A    between atoms: _349  and  _351
REMARK  145  A    between atoms: _351  and  _352
REMARK  146  A    between atoms: _351  and  _354
REMARK  147  A    between atoms: _354  and  _355
REMARK  148  A    between atoms: _358  and  _360
REMARK  149  A    between atoms: _360  and  _361
REMARK  150  A    between atoms: _360  and  _363
REMARK  151  A    between atoms: _363  and  _364
REMARK  152  A    between atoms: _367  and  _369
REMARK  153  A    between atoms: _369  and  _370
REMARK  154  A    between atoms: _369  and  _372
REMARK  155  A    between atoms: _372  and  _373
REMARK  156  A    between atoms: _376  and  _378
REMARK  157  A    between atoms: _378  and  _379
REMARK  158  A    between atoms: _378  and  _381
REMARK  159  A    between atoms: _384  and  _386
REMARK  160  A    between atoms: _386  and  _387
REMARK  161  A    between atoms: _386  and  _389
REMARK  162  A    between atoms: _389  and  _390
REMARK  163  A    between atoms: _390  and  _391
REMARK  164  A    between atoms: _394  and  _396
REMARK  165  A    between atoms: _396  and  _397
REMARK  166  A    between atoms: _396  and  _399
REMARK  167  A    between atoms: _399  and  _400
REMARK  168  A    between atoms: _400  and  _401
REMARK  169  A    between atoms: _401  and  _402
REMARK  170  A    between atoms: _402  and  _403
REMARK  171  A    between atoms: _407  and  _409
REMARK  172  A    between atoms: _409  and  _410
REMARK  173  A    between atoms: _409  and  _412
REMARK  174  A    between atoms: _412  and  _413
REMARK  175  A    between atoms: _413  and  _414
REMARK  176  A    between atoms: _416  and  _418
REMARK  177  A    between atoms: _418  and  _419
REMARK  178  A    between atoms: _418  and  _421
REMARK  179  A    between atoms: _421  and  _422
REMARK  180  A    between atoms: _425  and  _427
REMARK  181  A    between atoms: _427  and  _428
REMARK  182  A    between atoms: _430  and  _432
REMARK  183  A    between atoms: _432  and  _433
REMARK  184  A    between atoms: _435  and  _437
REMARK  185  A    between atoms: _437  and  _438
REMARK  186  A    between atoms: _437  and  _440
REMARK  187  A    between atoms: _440  and  _441
REMARK  188  A    between atoms: _444  and  _446
REMARK  189  A    between atoms: _446  and  _447
REMARK  190  A    between atoms: _449  and  _451
REMARK  191  A    between atoms: _451  and  _452
REMARK  192  A    between atoms: _454  and  _456
REMARK  193  A    between atoms: _456  and  _457
REMARK  194  A    between atoms: _456  and  _459
REMARK  195  A    between atoms: _459  and  _460
REMARK  196  A    between atoms: _466  and  _468
REMARK  197  A    between atoms: _468  and  _469
REMARK  198  A    between atoms: _468  and  _471
REMARK  199  A    between atoms: _471  and  _472
REMARK  200  A    between atoms: _475  and  _477
REMARK  201  A    between atoms: _477  and  _478
REMARK  202  A    between atoms: _477  and  _480
REMARK  203  A    between atoms: _483  and  _485
REMARK  204  A    between atoms: _485  and  _486
REMARK  205  A    between atoms: _485  and  _488
REMARK  206  A    between atoms: _488  and  _489
REMARK  207  A    between atoms: _492  and  _494
REMARK  208  A    between atoms: _494  and  _495
REMARK  209  A    between atoms: _494  and  _497
REMARK  210  A    between atoms: _495  and  _496
REMARK  211  A    between atoms: _495  and  _501
REMARK  212  A    between atoms: _497  and  _498
REMARK  213  A    between atoms: _502  and  _503
REMARK  214  A    between atoms: _508  and  _510
REMARK  215  A    between atoms: _510  and  _511
REMARK  216  A    between atoms: _510  and  _513
REMARK  217  A    between atoms: _513  and  _514
REMARK  218  A    between atoms: _517  and  _519
REMARK  219  A    between atoms: _519  and  _520
REMARK  220  A    between atoms: _519  and  _522
REMARK  221  A    between atoms: _522  and  _523
REMARK  222  A    between atoms: _528  and  _530
REMARK  223  A    between atoms: _530  and  _531
REMARK  224  A    between atoms: _530  and  _533
REMARK  225  A    between atoms: _536  and  _538
REMARK  226  A    between atoms: _538  and  _539
REMARK  227  A    between atoms: _538  and  _541
REMARK  228  A    between atoms: _541  and  _542
REMARK  229  A    between atoms: _545  and  _547
REMARK  230  A    between atoms: _547  and  _548
REMARK  231  A    between atoms: _550  and  _552
REMARK  232  A    between atoms: _552  and  _553
REMARK  233  A    between atoms: _552  and  _555
REMARK  234  A    between atoms: _555  and  _556
REMARK  235  A    between atoms: _556  and  _557
REMARK  236  A    between atoms: _557  and  _558
REMARK                            x       y       z     vdW  Elec       q    Type
REMARK                         _______ _______ _______ _____ _____    ______ ____
ROOT
ATOM      1  C   GLY A   5      18.389  24.057   4.418  0.00  0.00    +0.243 C 
ATOM      2  O   GLY A   5      18.275  23.198   5.306  0.00  0.00    -0.273 OA
ATOM      3  N   ALA A   6      18.479  23.756   3.139  0.00  0.00    -0.297 N 
ATOM      4  H   ALA A   6      18.602  24.523   2.448  0.00  0.00    +0.150 HD
ENDROOT
BRANCH   3   5
ATOM      5  CA  ALA A   6      18.411  22.372   2.660  0.00  0.00    +0.149 C 
ATOM      6  CB  ALA A   6      17.410  22.259   1.570  0.00  0.00    +0.031 C 
BRANCH   5   7
ATOM      7  C   ALA A   6      19.781  21.891   2.169  0.00  0.00    +0.241 C 
ATOM      8  N   ASP A   7      20.258  20.767   2.734  0.00  0.00    -0.297 N 
ATOM      9  H   ASP A   7      19.748  20.343   3.535  0.00  0.00    +0.150 HD
ATOM     10  O   ALA A   6      20.409  22.531   1.282  0.00  0.00    -0.273 OA
BRANCH   8  11
ATOM     11  CA  ASP A   7      21.534  20.100   2.223  0.00  0.00    +0.160 C 
BRANCH  11  12
ATOM     12  C   ASP A   7      21.335  19.650   0.790  0.00  0.00    +0.241 C 
ATOM     13  N   ASP A   8      20.123  19.150   0.502  0.00  0.00    -0.297 N 
ATOM     14  H   ASP A   8      19.339  19.327   1.162  0.00  0.00    +0.150 HD
ATOM     15  O   ASP A   7      22.248  19.743  -0.037  0.00  0.00    -0.273 OA
BRANCH  13  16
ATOM     16  CA  ASP A   8      19.867  18.374  -0.691  0.00  0.00    +0.160 C 
BRANCH  16  17
ATOM     17  C   ASP A   8      18.774  19.003  -1.495  0.00  0.00    +0.241 C 
ATOM     18  O   ASP A   8      18.019  19.854  -0.991  0.00  0.00    -0.273 OA
ATOM     19  N   THR A   9      18.672  18.593  -2.739  0.00  0.00    -0.295 N 
ATOM     20  H   THR A   9      19.383  17.929  -3.106  0.00  0.00    +0.150 HD
BRANCH  19  21
ATOM     21  CA  THR A   9      17.597  19.034  -3.630  0.00  0.00    +0.176 C 
BRANCH  21  22
ATOM     22  C   THR A   9      16.499  17.920  -3.712  0.00  0.00    +0.243 C 
ATOM     23  N   VAL A  10      15.254  18.287  -3.441  0.00  0.00    -0.298 N 
ATOM     24  H   VAL A  10      15.053  19.275  -3.188  0.00  0.00    +0.150 HD
ATOM     25  O   THR A   9      16.796  16.772  -4.012  0.00  0.00    -0.273 OA
BRANCH  23  26
ATOM     26  CA  VAL A  10      14.189  17.343  -3.493  0.00  0.00    +0.137 C 
BRANCH  26  27
ATOM     27  CB  VAL A  10      13.685  16.953  -2.063  0.00  0.00    +0.026 C 
ATOM     28  CG2 VAL A  10      13.124  18.087  -1.398  0.00  0.00    +0.002 C 
ATOM     29  CG1 VAL A  10      12.653  15.798  -2.146  0.00  0.00    +0.002 C 
ENDBRANCH  26  27
BRANCH  26  30
ATOM     30  C   VAL A  10      13.045  17.851  -4.315  0.00  0.00    +0.227 C 
ATOM     31  O   VAL A  10      12.570  18.943  -4.110  0.00  0.00    -0.286 OA
ENDBRANCH  26  30
ENDBRANCH  23  26
ENDBRANCH  21  22
BRANCH  21  32
ATOM     32  CB  THR A   9      18.165  19.325  -5.081  0.00  0.00    +0.137 C 
ATOM     33  CG2 THR A   9      17.041  19.583  -6.076  0.00  0.00    +0.034 C 
BRANCH  32  34
ATOM     34  OG1 THR A   9      19.044  20.475  -5.034  0.00  0.00    -0.382 OA
ATOM     35  HG1 THR A   9      19.795  20.290  -4.416  0.00  0.00    +0.210 HD
ENDBRANCH  32  34
ENDBRANCH  21  32
ENDBRANCH  19  21
ENDBRANCH  16  17
BRANCH  16  36
ATOM     36  CB  ASP A   8      19.436  16.900  -0.309  0.00  0.00    +0.143 C 
BRANCH  36  37
ATOM     37  CG  ASP A   8      20.478  16.180   0.514  0.00  0.00    +0.367 C 
ATOM     38  OD2 ASP A   8      20.120  15.617   1.518  0.00  0.00    -0.246 OA
ATOM     39  OD1 ASP A   8      21.652  16.193   0.131  0.00  0.00    -0.246 OA
ENDBRANCH  36  37
ENDBRANCH  16  36
ENDBRANCH  13  16
ENDBRANCH  11  12
BRANCH  11  40
ATOM     40  CB  ASP A   7      21.871  18.899   3.043  0.00  0.00    +0.143 C 
BRANCH  40  41
ATOM     41  CG  ASP A   7      22.356  19.240   4.418  0.00  0.00    +0.367 C 
ATOM     42  OD2 ASP A   7      22.622  18.259   5.210  0.00  0.00    -0.246 OA
ATOM     43  OD1 ASP A   7      22.485  20.431   4.754  0.00  0.00    -0.246 OA
ENDBRANCH  40  41
ENDBRANCH  11  40
ENDBRANCH   8  11
ENDBRANCH   5   7
ENDBRANCH   3   5
BRANCH   1  44
ATOM     44  CA  GLY A   5      18.431  25.574   4.783  0.00  0.00    +0.176 C 
BRANCH  44  46
ATOM     45  C   THR A   4      19.787  26.685   3.067  0.00  0.00    +0.243 C 
ATOM     46  N   GLY A   5      18.600  26.459   3.609  0.00  0.00    -0.295 N 
ATOM     47  H   GLY A   5      17.762  26.917   3.197  0.00  0.00    +0.150 HD
ATOM     48  O   THR A   4      20.853  26.231   3.541  0.00  0.00    -0.273 OA
BRANCH  45  49
ATOM     49  CA  THR A   4      19.800  27.542   1.805  0.00  0.00    +0.176 C 
BRANCH  49  51
ATOM     50  C   ASP A   3      17.906  26.604   0.608  0.00  0.00    +0.241 C 
ATOM     51  N   THR A   4      18.488  27.649   1.247  0.00  0.00    -0.295 N 
ATOM     52  H   THR A   4      17.969  28.546   1.333  0.00  0.00    +0.150 HD
ATOM     53  O   ASP A   3      18.425  25.513   0.527  0.00  0.00    -0.273 OA
BRANCH  50  54
ATOM     54  CA  ASP A   3      16.552  26.861  -0.014  0.00  0.00    +0.160 C 
BRANCH  54  57
ATOM     55  C   LEU A   2      16.130  28.289  -1.980  0.00  0.00    +0.241 C 
ATOM     56  O   LEU A   2      15.753  29.244  -1.311  0.00  0.00    -0.273 OA
ATOM     57  N   ASP A   3      16.693  27.186  -1.439  0.00  0.00    -0.297 N 
ATOM     58  H   ASP A   3      17.242  26.548  -2.050  0.00  0.00    +0.150 HD
BRANCH  55  59
ATOM     59  CA  LEU A   2      15.976  28.293  -3.509  0.00  0.00    +0.149 C 
BRANCH  59  62
ATOM     60  C   LEU A   1      13.856  27.107  -3.799  0.00  0.00    +0.238 C 
ATOM     61  O   LEU A   1      14.375  26.035  -3.519  0.00  0.00    -0.274 OA
ATOM     62  N   LEU A   2      14.544  28.239  -3.876  0.00  0.00    -0.297 N 
ATOM     63  H   LEU A   2      14.067  29.105  -4.200  0.00  0.00    +0.150 HD
BRANCH  60  64
ATOM     64  CA  LEU A   1      12.316  27.195  -4.088  0.00  0.00    +0.145 C 
BRANCH  64  65
ATOM     65  N   LEU A   1      11.963  26.265  -5.110  0.00  0.00    -0.238 NA
ATOM     66  H   LEU A   1      11.840  25.265  -4.851  0.00  0.00    +0.142 HD
ENDBRANCH  64  65
BRANCH  64  67
ATOM     67  CB  LEU A   1      11.532  26.854  -2.808  0.00  0.00    +0.026 C 
BRANCH  67  68
ATOM     68  CG  LEU A   1      11.673  27.722  -1.635  0.00  0.00    +0.002 C 
ATOM     69  CD2 LEU A   1      10.966  27.043  -0.411  0.00  0.00    +0.000 C 
ATOM     70  CD1 LEU A   1      11.075  29.104  -1.905  0.00  0.00    +0.000 C 
ENDBRANCH  67  68
ENDBRANCH  64  67
ENDBRANCH  60  64
ENDBRANCH  59  62
BRANCH  59  71
ATOM     71  CB  LEU A   2      16.623  29.512  -4.081  0.00  0.00    +0.029 C 
BRANCH  71  72
ATOM     72  CG  LEU A   2      16.558  29.690  -5.605  0.00  0.00    +0.002 C 
ATOM     73  CD2 LEU A   2      17.369  30.870  -5.999  0.00  0.00    +0.000 C 
ATOM     74  CD1 LEU A   2      17.050  28.430  -6.342  0.00  0.00    +0.000 C 
ENDBRANCH  71  72
ENDBRANCH  59  71
ENDBRANCH  55  59
ENDBRANCH  54  57
BRANCH  54  75
ATOM     75  CB  ASP A   3      15.661  25.618   0.152  0.00  0.00    +0.143 C 
BRANCH  75  76
ATOM     76  CG  ASP A   3      15.206  25.399   1.608  0.00  0.00    +0.367 C 
ATOM     77  OD2 ASP A   3      15.798  25.984   2.512  0.00  0.00    -0.246 OA
ATOM     78  OD1 ASP A   3      14.256  24.637   1.811  0.00  0.00    -0.246 OA
ENDBRANCH  75  76
ENDBRANCH  54  75
ENDBRANCH  50  54
ENDBRANCH  49  51
BRANCH  49  79
ATOM     79  CB  THR A   4      20.389  28.924   2.142  0.00  0.00    +0.137 C 
ATOM     80  CG2 THR A   4      20.563  29.742   0.895  0.00  0.00    +0.034 C 
BRANCH  79  81
ATOM     81  OG1 THR A   4      19.518  29.618   3.062  0.00  0.00    -0.382 OA
ATOM     82  HG1 THR A   4      19.429  29.088   3.894  0.00  0.00    +0.210 HD
ENDBRANCH  79  81
ENDBRANCH  49  79
ENDBRANCH  45  49
ENDBRANCH  44  46
ENDBRANCH   1  44
TORSDOF 35
REMARK  Name = ../refined-set-2016/4cp7/4cp7_pocket.pdb
REMARK  236 active torsions:
REMARK  status: ('A' for Active; 'I' for Inactive)
REMARK    1  A    between atoms: _1  and  _3
REMARK    2  A    between atoms: _3  and  _4
REMARK    3  A    between atoms: _3  and  _6
REMARK    4  A    between atoms: _6  and  _7
REMARK    5  A    between atoms: _7  and  _8
REMARK    6  A    between atoms: _8  and  _9
REMARK    7  A    between atoms: _18  and  _20
REMARK    8  A    between atoms: _20  and  _21
REMARK    9  A    between atoms: _20  and  _23
REMARK   10  A    between atoms: _23  and  _24
REMARK   11  A    between atoms: _27  and  _29
REMARK   12  A    between atoms: _29  and  _30
REMARK   13  A    between atoms: _29  and  _32
REMARK   14  A    between atoms: _32  and  _33
REMARK   15  A    between atoms: _36  and  _38
REMARK   16  A    between atoms: _38  and  _39
REMARK   17  A    between atoms: _38  and  _41
REMARK   18  A    between atoms: _41  and  _42
REMARK   19  A    between atoms: _45  and  _47
REMARK   20  A    between atoms: _47  and  _48
REMARK   21  A    between atoms: _47  and  _50
REMARK   22  A    between atoms: _50  and  _51
REMARK   23  A    between atoms: _54  and  _56
REMARK   24  A    between atoms: _56  and  _57
REMARK   25  A    between atoms: _59  and  _61
REMARK   26  A    between atoms: _61  and  _62
REMARK   27  A    between atoms: _65  and  _67
REMARK   28  A    between atoms: _67  and  _68
REMARK   29  A    between atoms: _67  and  _70
REMARK   30  A    between atoms: _70  and  _71
REMARK   31  A    between atoms: _74  and  _76
REMARK   32  A    between atoms: _76  and  _77
REMARK   33  A    between atoms: _76  and  _79
REMARK   34  A    between atoms: _79  and  _80
REMARK   35  A    between atoms: _83  and  _85
REMARK   36  A    between atoms: _85  and  _86
REMARK   37  A    between atoms: _85  and  _88
REMARK   38  A    between atoms: _88  and  _89
REMARK   39  A    between atoms: _92  and  _94
REMARK   40  A    between atoms: _94  and  _95
REMARK   41  A    between atoms: _94  and  _97
REMARK   42  A    between atoms: _100  and  _102
REMARK   43  A    between atoms: _102  and  _103
REMARK   44  A    between atoms: _102  and  _105
REMARK   45  A    between atoms: _105  and  _106
REMARK   46  A    between atoms: _106  and  _107
REMARK   47  A    between atoms: _107  and  _108
REMARK   48  A    between atoms: _108  and  _109
REMARK   49  A    between atoms: _113  and  _115
REMARK   50  A    between atoms: _115  and  _116
REMARK   51  A    between atoms: _115  and  _118
REMARK   52  A    between atoms: _118  and  _119
REMARK   53  A    between atoms: _119  and  _120
REMARK   54  A    between atoms: _122  and  _124
REMARK   55  A    between atoms: _124  and  _125
REMARK   56  A    between atoms: _124  and  _127
REMARK   57  A    between atoms: _127  and  _128
REMARK   58  A    between atoms: _131  and  _133
REMARK   59  A    between atoms: _133  and  _134
REMARK   60  A    between atoms: _136  and  _138
REMARK   61  A    between atoms: _138  and  _139
REMARK   62  A    between atoms: _141  and  _143
REMARK   63  A    between atoms: _143  and  _144
REMARK   64  A    between atoms: _143  and  _146
REMARK   65  A    between atoms: _146  and  _147
REMARK   66  A    between atoms: _150  and  _152
REMARK   67  A    between atoms: _152  and  _153
REMARK   68  A    between atoms: _155  and  _157
REMARK   69  A    between atoms: _157  and  _158
REMARK   70  A    between atoms: _160  and  _162
REMARK   71  A    between atoms: _162  and  _163
REMARK   72  A    between atoms: _162  and  _165
REMARK   73  A    between atoms: _165  and  _166
REMARK   74  A    between atoms: _172  and  _174
REMARK   75  A    between atoms: _174  and  _175
REMARK   76  A    between atoms: _174  and  _177
REMARK   77  A    between atoms: _177  and  _178
REMARK   78  A    between atoms: _181  and  _183
REMARK   79  A    between atoms: _183  and  _184
REMARK   80  A    between atoms: _183  and  _186
REMARK   81  A    between atoms: _186  and  _187
REMARK   82  A    between atoms: _190  and  _192
REMARK   83  A    between atoms: _192  and  _193
REMARK   84  A    between atoms: _192  and  _195
REMARK   85  A    between atoms: _195  and  _196
REMARK   86  A    between atoms: _200  and  _201
REMARK   87  A    between atoms: _206  and  _208
REMARK   88  A    between atoms: _208  and  _209
REMARK   89  A    between atoms: _208  and  _211
REMARK   90  A    between atoms: _211  and  _212
REMARK   91  A    between atoms: _215  and  _217
REMARK   92  A    between atoms: _217  and  _218
REMARK   93  A    between atoms: _217  and  _220
REMARK   94  A    between atoms: _220  and  _221
REMARK   95  A    between atoms: _226  and  _228
REMARK   96  A    between atoms: _228  and  _229
REMARK   97  A    between atoms: _228  and  _231
REMARK   98  A    between atoms: _234  and  _236
REMARK   99  A    between atoms: _236  and  _237
REMARK  100  A    between atoms: _236  and  _239
REMARK  101  A    between atoms: _239  and  _240
REMARK  102  A    between atoms: _243  and  _245
REMARK  103  A    between atoms: _245  and  _246
REMARK  104  A    between atoms: _248  and  _250
REMARK  105  A    between atoms: _250  and  _251
REMARK  106  A    between atoms: _250  and  _253
REMARK  107  A    between atoms: _253  and  _254
REMARK  108  A    between atoms: _254  and  _255
REMARK  109  A    between atoms: _255  and  _256
REMARK  110  A    between atoms: _265  and  _267
REMARK  111  A    between atoms: _267  and  _268
REMARK  112  A    between atoms: _267  and  _270
REMARK  113  A    between atoms: _270  and  _271
REMARK  114  A    between atoms: _276  and  _278
REMARK  115  A    between atoms: _278  and  _279
REMARK  116  A    between atoms: _278  and  _281
REMARK  117  A    between atoms: _281  and  _282
REMARK  118  A    between atoms: _282  and  _283
REMARK  119  A    between atoms: _283  and  _284
REMARK  120  A    between atoms: _293  and  _295
REMARK  121  A    between atoms: _295  and  _296
REMARK  122  A    between atoms: _295  and  _298
REMARK  123  A    between atoms: _298  and  _299
REMARK  124  A    between atoms: _302  and  _304
REMARK  125  A    between atoms: _304  and  _305
REMARK  126  A    between atoms: _304  and  _307
REMARK  127  A    between atoms: _307  and  _308
REMARK  128  A    between atoms: _311  and  _313
REMARK  129  A    between atoms: _313  and  _314
REMARK  130  A    between atoms: _313  and  _316
REMARK  131  A    between atoms: _316  and  _317
REMARK  132  A    between atoms: _320  and  _322
REMARK  133  A    between atoms: _322  and  _323
REMARK  134  A    between atoms: _322  and  _325
REMARK  135  A    between atoms: _325  and  _326
REMARK  136  A    between atoms: _329  and  _331
REMARK  137  A    between atoms: _331  and  _332
REMARK  138  A    between atoms: _331  and  _334
REMARK  139  A    between atoms: _334  and  _335
REMARK  140  A    between atoms: _338  and  _340
REMARK  141  A    between atoms: _340  and  _341
REMARK  142  A    between atoms: _343  and  _345
REMARK  143  A    between atoms: _345  and  _346
REMARK  144  A    between atoms: _349  and  _351
REMARK  145  A    between atoms: _351  and  _352
REMARK  146  A    between atoms: _351  and  _354
REMARK  147  A    between atoms: _354  and  _355
REMARK  148  A    between atoms: _358  and  _360
REMARK  149  A    between atoms: _360  and  _361
REMARK  150  A    between atoms: _360  and  _363
REMARK  151  A    between atoms: _363  and  _364
REMARK  152  A    between atoms: _367  and  _369
REMARK  153  A    between atoms: _369  and  _370
REMARK  154  A    between atoms: _369  and  _372
REMARK  155  A    between atoms: _372  and  _373
REMARK  156  A    between atoms: _376  and  _378
REMARK  157  A    between atoms: _378  and  _379
REMARK  158  A    between atoms: _378  and  _381
REMARK  159  A    between atoms: _384  and  _386
REMARK  160  A    between atoms: _386  and  _387
REMARK  161  A    between atoms: _386  and  _389
REMARK  162  A    between atoms: _389  and  _390
REMARK  163  A    between atoms: _390  and  _391
REMARK  164  A    between atoms: _394  and  _396
REMARK  165  A    between atoms: _396  and  _397
REMARK  166  A    between atoms: _396  and  _399
REMARK  167  A    between atoms: _399  and  _400
REMARK  168  A    between atoms: _400  and  _401
REMARK  169  A    between atoms: _401  and  _402
REMARK  170  A    between atoms: _402  and  _403
REMARK  171  A    between atoms: _407  and  _409
REMARK  172  A    between atoms: _409  and  _410
REMARK  173  A    between atoms: _409  and  _412
REMARK  174  A    between atoms: _412  and  _413
REMARK  175  A    between atoms: _413  and  _414
REMARK  176  A    between atoms: _416  and  _418
REMARK  177  A    between atoms: _418  and  _419
REMARK  178  A    between atoms: _418  and  _421
REMARK  179  A    between atoms: _421  and  _422
REMARK  180  A    between atoms: _425  and  _427
REMARK  181  A    between atoms: _427  and  _428
REMARK  182  A    between atoms: _430  and  _432
REMARK  183  A    between atoms: _432  and  _433
REMARK  184  A    between atoms: _435  and  _437
REMARK  185  A    between atoms: _437  and  _438
REMARK  186  A    between atoms: _437  and  _440
REMARK  187  A    between atoms: _440  and  _441
REMARK  188  A    between atoms: _444  and  _446
REMARK  189  A    between atoms: _446  and  _447
REMARK  190  A    between atoms: _449  and  _451
REMARK  191  A    between atoms: _451  and  _452
REMARK  192  A    between atoms: _454  and  _456
REMARK  193  A    between atoms: _456  and  _457
REMARK  194  A    between atoms: _456  and  _459
REMARK  195  A    between atoms: _459  and  _460
REMARK  196  A    between atoms: _466  and  _468
REMARK  197  A    between atoms: _468  and  _469
REMARK  198  A    between atoms: _468  and  _471
REMARK  199  A    between atoms: _471  and  _472
REMARK  200  A    between atoms: _475  and  _477
REMARK  201  A    between atoms: _477  and  _478
REMARK  202  A    between atoms: _477  and  _480
REMARK  203  A    between atoms: _483  and  _485
REMARK  204  A    between atoms: _485  and  _486
REMARK  205  A    between atoms: _485  and  _488
REMARK  206  A    between atoms: _488  and  _489
REMARK  207  A    between atoms: _492  and  _494
REMARK  208  A    between atoms: _494  and  _495
REMARK  209  A    between atoms: _494  and  _497
REMARK  210  A    between atoms: _495  and  _496
REMARK  211  A    between atoms: _495  and  _501
REMARK  212  A    between atoms: _497  and  _498
REMARK  213  A    between atoms: _502  and  _503
REMARK  214  A    between atoms: _508  and  _510
REMARK  215  A    between atoms: _510  and  _511
REMARK  216  A    between atoms: _510  and  _513
REMARK  217  A    between atoms: _513  and  _514
REMARK  218  A    between atoms: _517  and  _519
REMARK  219  A    between atoms: _519  and  _520
REMARK  220  A    between atoms: _519  and  _522
REMARK  221  A    between atoms: _522  and  _523
REMARK  222  A    between atoms: _528  and  _530
REMARK  223  A    between atoms: _530  and  _531
REMARK  224  A    between atoms: _530  and  _533
REMARK  225  A    between atoms: _536  and  _538
REMARK  226  A    between atoms: _538  and  _539
REMARK  227  A    between atoms: _538  and  _541
REMARK  228  A    between atoms: _541  and  _542
REMARK  229  A    between atoms: _545  and  _547
REMARK  230  A    between atoms: _547  and  _548
REMARK  231  A    between atoms: _550  and  _552
REMARK  232  A    between atoms: _552  and  _553
REMARK  233  A    between atoms: _552  and  _555
REMARK  234  A    between atoms: _555  and  _556
REMARK  235  A    between atoms: _556  and  _557
REMARK  236  A    between atoms: _557  and  _558
REMARK                            x       y       z     vdW  Elec       q    Type
REMARK                         _______ _______ _______ _____ _____    ______ ____
ROOT
ATOM      1  CA  GLU A   1       7.882  16.260  -6.221  0.00  0.00    +0.134 C 
ENDROOT
BRANCH   1   2
ATOM      2  N   GLU A   1       9.101  17.014  -6.251  0.00  0.00    -0.239 NA
ATOM      3  H   GLU A   1       9.061  18.017  -6.523  0.00  0.00    +0.142 HD
ENDBRANCH   1   2
BRANCH   1   4
ATOM      4  C   GLU A   1       7.917  15.111  -7.215  0.00  0.00    +0.224 C 
ATOM      5  O   GLU A   1       8.705  15.129  -8.189  0.00  0.00    -0.287 OA
ENDBRANCH   1   4
BRANCH   1   6
ATOM      6  CB  GLU A   1       6.668  17.214  -6.547  0.00  0.00    +0.037 C 
BRANCH   6   7
ATOM      7  CG  GLU A   1       6.536  18.399  -5.564  0.00  0.00    +0.116 C 
BRANCH   7   8
ATOM      8  CD  GLU A   1       5.754  19.598  -6.157  0.00  0.00    +0.365 C 
ATOM      9  OE2 GLU A   1       5.905  20.737  -5.623  0.00  0.00    -0.246 OA
ATOM     10  OE1 GLU A   1       5.023  19.405  -7.113  0.00  0.00    -0.246 OA
ENDBRANCH   7   8
ENDBRANCH   6   7
ENDBRANCH   1   6
TORSDOF 5
REMARK  Name = ../refined-set-2016/4cp7/4cp7_pocket.pdb
REMARK  236 active torsions:
REMARK  status: ('A' for Active; 'I' for Inactive)
REMARK    1  A    between atoms: _1  and  _3
REMARK    2  A    between atoms: _3  and  _4
REMARK    3  A    between atoms: _3  and  _6
REMARK    4  A    between atoms: _6  and  _7
REMARK    5  A    between atoms: _7  and  _8
REMARK    6  A    between atoms: _8  and  _9
REMARK    7  A    between atoms: _18  and  _20
REMARK    8  A    between atoms: _20  and  _21
REMARK    9  A    between atoms: _20  and  _23
REMARK   10  A    between atoms: _23  and  _24
REMARK   11  A    between atoms: _27  and  _29
REMARK   12  A    between atoms: _29  and  _30
REMARK   13  A    between atoms: _29  and  _32
REMARK   14  A    between atoms: _32  and  _33
REMARK   15  A    between atoms: _36  and  _38
REMARK   16  A    between atoms: _38  and  _39
REMARK   17  A    between atoms: _38  and  _41
REMARK   18  A    between atoms: _41  and  _42
REMARK   19  A    between atoms: _45  and  _47
REMARK   20  A    between atoms: _47  and  _48
REMARK   21  A    between atoms: _47  and  _50
REMARK   22  A    between atoms: _50  and  _51
REMARK   23  A    between atoms: _54  and  _56
REMARK   24  A    between atoms: _56  and  _57
REMARK   25  A    between atoms: _59  and  _61
REMARK   26  A    between atoms: _61  and  _62
REMARK   27  A    between atoms: _65  and  _67
REMARK   28  A    between atoms: _67  and  _68
REMARK   29  A    between atoms: _67  and  _70
REMARK   30  A    between atoms: _70  and  _71
REMARK   31  A    between atoms: _74  and  _76
REMARK   32  A    between atoms: _76  and  _77
REMARK   33  A    between atoms: _76  and  _79
REMARK   34  A    between atoms: _79  and  _80
REMARK   35  A    between atoms: _83  and  _85
REMARK   36  A    between atoms: _85  and  _86
REMARK   37  A    between atoms: _85  and  _88
REMARK   38  A    between atoms: _88  and  _89
REMARK   39  A    between atoms: _92  and  _94
REMARK   40  A    between atoms: _94  and  _95
REMARK   41  A    between atoms: _94  and  _97
REMARK   42  A    between atoms: _100  and  _102
REMARK   43  A    between atoms: _102  and  _103
REMARK   44  A    between atoms: _102  and  _105
REMARK   45  A    between atoms: _105  and  _106
REMARK   46  A    between atoms: _106  and  _107
REMARK   47  A    between atoms: _107  and  _108
REMARK   48  A    between atoms: _108  and  _109
REMARK   49  A    between atoms: _113  and  _115
REMARK   50  A    between atoms: _115  and  _116
REMARK   51  A    between atoms: _115  and  _118
REMARK   52  A    between atoms: _118  and  _119
REMARK   53  A    between atoms: _119  and  _120
REMARK   54  A    between atoms: _122  and  _124
REMARK   55  A    between atoms: _124  and  _125
REMARK   56  A    between atoms: _124  and  _127
REMARK   57  A    between atoms: _127  and  _128
REMARK   58  A    between atoms: _131  and  _133
REMARK   59  A    between atoms: _133  and  _134
REMARK   60  A    between atoms: _136  and  _138
REMARK   61  A    between atoms: _138  and  _139
REMARK   62  A    between atoms: _141  and  _143
REMARK   63  A    between atoms: _143  and  _144
REMARK   64  A    between atoms: _143  and  _146
REMARK   65  A    between atoms: _146  and  _147
REMARK   66  A    between atoms: _150  and  _152
REMARK   67  A    between atoms: _152  and  _153
REMARK   68  A    between atoms: _155  and  _157
REMARK   69  A    between atoms: _157  and  _158
REMARK   70  A    between atoms: _160  and  _162
REMARK   71  A    between atoms: _162  and  _163
REMARK   72  A    between atoms: _162  and  _165
REMARK   73  A    between atoms: _165  and  _166
REMARK   74  A    between atoms: _172  and  _174
REMARK   75  A    between atoms: _174  and  _175
REMARK   76  A    between atoms: _174  and  _177
REMARK   77  A    between atoms: _177  and  _178
REMARK   78  A    between atoms: _181  and  _183
REMARK   79  A    between atoms: _183  and  _184
REMARK   80  A    between atoms: _183  and  _186
REMARK   81  A    between atoms: _186  and  _187
REMARK   82  A    between atoms: _190  and  _192
REMARK   83  A    between atoms: _192  and  _193
REMARK   84  A    between atoms: _192  and  _195
REMARK   85  A    between atoms: _195  and  _196
REMARK   86  A    between atoms: _200  and  _201
REMARK   87  A    between atoms: _206  and  _208
REMARK   88  A    between atoms: _208  and  _209
REMARK   89  A    between atoms: _208  and  _211
REMARK   90  A    between atoms: _211  and  _212
REMARK   91  A    between atoms: _215  and  _217
REMARK   92  A    between atoms: _217  and  _218
REMARK   93  A    between atoms: _217  and  _220
REMARK   94  A    between atoms: _220  and  _221
REMARK   95  A    between atoms: _226  and  _228
REMARK   96  A    between atoms: _228  and  _229
REMARK   97  A    between atoms: _228  and  _231
REMARK   98  A    between atoms: _234  and  _236
REMARK   99  A    between atoms: _236  and  _237
REMARK  100  A    between atoms: _236  and  _239
REMARK  101  A    between atoms: _239  and  _240
REMARK  102  A    between atoms: _243  and  _245
REMARK  103  A    between atoms: _245  and  _246
REMARK  104  A    between atoms: _248  and  _250
REMARK  105  A    between atoms: _250  and  _251
REMARK  106  A    between atoms: _250  and  _253
REMARK  107  A    between atoms: _253  and  _254
REMARK  108  A    between atoms: _254  and  _255
REMARK  109  A    between atoms: _255  and  _256
REMARK  110  A    between atoms: _265  and  _267
REMARK  111  A    between atoms: _267  and  _268
REMARK  112  A    between atoms: _267  and  _270
REMARK  113  A    between atoms: _270  and  _271
REMARK  114  A    between atoms: _276  and  _278
REMARK  115  A    between atoms: _278  and  _279
REMARK  116  A    between atoms: _278  and  _281
REMARK  117  A    between atoms: _281  and  _282
REMARK  118  A    between atoms: _282  and  _283
REMARK  119  A    between atoms: _283  and  _284
REMARK  120  A    between atoms: _293  and  _295
REMARK  121  A    between atoms: _295  and  _296
REMARK  122  A    between atoms: _295  and  _298
REMARK  123  A    between atoms: _298  and  _299
REMARK  124  A    between atoms: _302  and  _304
REMARK  125  A    between atoms: _304  and  _305
REMARK  126  A    between atoms: _304  and  _307
REMARK  127  A    between atoms: _307  and  _308
REMARK  128  A    between atoms: _311  and  _313
REMARK  129  A    between atoms: _313  and  _314
REMARK  130  A    between atoms: _313  and  _316
REMARK  131  A    between atoms: _316  and  _317
REMARK  132  A    between atoms: _320  and  _322
REMARK  133  A    between atoms: _322  and  _323
REMARK  134  A    between atoms: _322  and  _325
REMARK  135  A    between atoms: _325  and  _326
REMARK  136  A    between atoms: _329  and  _331
REMARK  137  A    between atoms: _331  and  _332
REMARK  138  A    between atoms: _331  and  _334
REMARK  139  A    between atoms: _334  and  _335
REMARK  140  A    between atoms: _338  and  _340
REMARK  141  A    between atoms: _340  and  _341
REMARK  142  A    between atoms: _343  and  _345
REMARK  143  A    between atoms: _345  and  _346
REMARK  144  A    between atoms: _349  and  _351
REMARK  145  A    between atoms: _351  and  _352
REMARK  146  A    between atoms: _351  and  _354
REMARK  147  A    between atoms: _354  and  _355
REMARK  148  A    between atoms: _358  and  _360
REMARK  149  A    between atoms: _360  and  _361
REMARK  150  A    between atoms: _360  and  _363
REMARK  151  A    between atoms: _363  and  _364
REMARK  152  A    between atoms: _367  and  _369
REMARK  153  A    between atoms: _369  and  _370
REMARK  154  A    between atoms: _369  and  _372
REMARK  155  A    between atoms: _372  and  _373
REMARK  156  A    between atoms: _376  and  _378
REMARK  157  A    between atoms: _378  and  _379
REMARK  158  A    between atoms: _378  and  _381
REMARK  159  A    between atoms: _384  and  _386
REMARK  160  A    between atoms: _386  and  _387
REMARK  161  A    between atoms: _386  and  _389
REMARK  162  A    between atoms: _389  and  _390
REMARK  163  A    between atoms: _390  and  _391
REMARK  164  A    between atoms: _394  and  _396
REMARK  165  A    between atoms: _396  and  _397
REMARK  166  A    between atoms: _396  and  _399
REMARK  167  A    between atoms: _399  and  _400
REMARK  168  A    between atoms: _400  and  _401
REMARK  169  A    between atoms: _401  and  _402
REMARK  170  A    between atoms: _402  and  _403
REMARK  171  A    between atoms: _407  and  _409
REMARK  172  A    between atoms: _409  and  _410
REMARK  173  A    between atoms: _409  and  _412
REMARK  174  A    between atoms: _412  and  _413
REMARK  175  A    between atoms: _413  and  _414
REMARK  176  A    between atoms: _416  and  _418
REMARK  177  A    between atoms: _418  and  _419
REMARK  178  A    between atoms: _418  and  _421
REMARK  179  A    between atoms: _421  and  _422
REMARK  180  A    between atoms: _425  and  _427
REMARK  181  A    between atoms: _427  and  _428
REMARK  182  A    between atoms: _430  and  _432
REMARK  183  A    between atoms: _432  and  _433
REMARK  184  A    between atoms: _435  and  _437
REMARK  185  A    between atoms: _437  and  _438
REMARK  186  A    between atoms: _437  and  _440
REMARK  187  A    between atoms: _440  and  _441
REMARK  188  A    between atoms: _444  and  _446
REMARK  189  A    between atoms: _446  and  _447
REMARK  190  A    between atoms: _449  and  _451
REMARK  191  A    between atoms: _451  and  _452
REMARK  192  A    between atoms: _454  and  _456
REMARK  193  A    between atoms: _456  and  _457
REMARK  194  A    between atoms: _456  and  _459
REMARK  195  A    between atoms: _459  and  _460
REMARK  196  A    between atoms: _466  and  _468
REMARK  197  A    between atoms: _468  and  _469
REMARK  198  A    between atoms: _468  and  _471
REMARK  199  A    between atoms: _471  and  _472
REMARK  200  A    between atoms: _475  and  _477
REMARK  201  A    between atoms: _477  and  _478
REMARK  202  A    between atoms: _477  and  _480
REMARK  203  A    between atoms: _483  and  _485
REMARK  204  A    between atoms: _485  and  _486
REMARK  205  A    between atoms: _485  and  _488
REMARK  206  A    between atoms: _488  and  _489
REMARK  207  A    between atoms: _492  and  _494
REMARK  208  A    between atoms: _494  and  _495
REMARK  209  A    between atoms: _494  and  _497
REMARK  210  A    between atoms: _495  and  _496
REMARK  211  A    between atoms: _495  and  _501
REMARK  212  A    between atoms: _497  and  _498
REMARK  213  A    between atoms: _502  and  _503
REMARK  214  A    between atoms: _508  and  _510
REMARK  215  A    between atoms: _510  and  _511
REMARK  216  A    between atoms: _510  and  _513
REMARK  217  A    between atoms: _513  and  _514
REMARK  218  A    between atoms: _517  and  _519
REMARK  219  A    between atoms: _519  and  _520
REMARK  220  A    between atoms: _519  and  _522
REMARK  221  A    between atoms: _522  and  _523
REMARK  222  A    between atoms: _528  and  _530
REMARK  223  A    between atoms: _530  and  _531
REMARK  224  A    between atoms: _530  and  _533
REMARK  225  A    between atoms: _536  and  _538
REMARK  226  A    between atoms: _538  and  _539
REMARK  227  A    between atoms: _538  and  _541
REMARK  228  A    between atoms: _541  and  _542
REMARK  229  A    between atoms: _545  and  _547
REMARK  230  A    between atoms: _547  and  _548
REMARK  231  A    between atoms: _550  and  _552
REMARK  232  A    between atoms: _552  and  _553
REMARK  233  A    between atoms: _552  and  _555
REMARK  234  A    between atoms: _555  and  _556
REMARK  235  A    between atoms: _556  and  _557
REMARK  236  A    between atoms: _557  and  _558
REMARK                            x       y       z     vdW  Elec       q    Type
REMARK                         _______ _______ _______ _____ _____    ______ ____
ROOT
ATOM      1  C   GLY A   5      12.076  18.499   9.056  0.00  0.00    +0.243 C 
ATOM      2  O   GLY A   5      12.192  17.763  10.067  0.00  0.00    -0.273 OA
ATOM      3  N   ILE A   6      11.425  19.641   9.076  0.00  0.00    -0.297 N 
ATOM      4  H   ILE A   6      11.317  20.181   8.194  0.00  0.00    +0.150 HD
ENDROOT
BRANCH   3   5
ATOM      5  CA  ILE A   6      10.849  20.167  10.313  0.00  0.00    +0.149 C 
BRANCH   5   6
ATOM      6  C   ILE A   6       9.825  19.184  10.897  0.00  0.00    +0.241 C 
ATOM      7  O   ILE A   6       9.654  19.108  12.083  0.00  0.00    -0.273 OA
ATOM      8  N   GLY A   7       9.155  18.437  10.019  0.00  0.00    -0.295 N 
ATOM      9  H   GLY A   7       9.443  18.446   9.020  0.00  0.00    +0.150 HD
BRANCH   8  10
ATOM     10  CA  GLY A   7       8.035  17.614  10.425  0.00  0.00    +0.176 C 
BRANCH  10  11
ATOM     11  C   GLY A   7       8.438  16.173  10.777  0.00  0.00    +0.243 C 
ATOM     12  O   GLY A   7       7.625  15.402  11.245  0.00  0.00    -0.273 OA
ATOM     13  N   GLY A   8       9.715  15.831  10.539  0.00  0.00    -0.295 N 
ATOM     14  H   GLY A   8      10.394  16.569  10.264  0.00  0.00    +0.150 HD
BRANCH  13  15
ATOM     15  CA  GLY A   8      10.177  14.443  10.657  0.00  0.00    +0.176 C 
BRANCH  15  16
ATOM     16  C   GLY A   8      10.789  13.955   9.370  0.00  0.00    +0.243 C 
ATOM     17  N   PHE A   9      10.771  12.647   9.163  0.00  0.00    -0.297 N 
ATOM     18  H   PHE A   9      10.181  12.043   9.770  0.00  0.00    +0.150 HD
ATOM     19  O   GLY A   8      11.256  14.721   8.594  0.00  0.00    -0.273 OA
BRANCH  17  20
ATOM     20  CA  PHE A   9      11.572  12.031   8.089  0.00  0.00    +0.153 C 
BRANCH  20  21
ATOM     21  C   PHE A   9      10.688  11.477   6.957  0.00  0.00    +0.241 C 
ATOM     22  O   PHE A   9       9.560  11.024   7.192  0.00  0.00    -0.273 OA
ATOM     23  N   ILE A  10      11.209  11.521   5.725  0.00  0.00    -0.298 N 
ATOM     24  H   ILE A  10      12.077  12.069   5.558  0.00  0.00    +0.150 HD
BRANCH  23  25
ATOM     25  CA  ILE A  10      10.597  10.830   4.635  0.00  0.00    +0.137 C 
BRANCH  25  26
ATOM     26  C   ILE A  10      11.607  10.006   3.870  0.00  0.00    +0.227 C 
ATOM     27  O   ILE A  10      12.804  10.282   3.905  0.00  0.00    -0.286 OA
ENDBRANCH  25  26
BRANCH  25  28
ATOM     28  CB  ILE A  10       9.895  11.803   3.658  0.00  0.00    +0.026 C 
ATOM     29  CG2 ILE A  10       8.833  12.627   4.393  0.00  0.00    +0.002 C 
BRANCH  28  30
ATOM     30  CG1 ILE A  10      10.915  12.723   2.988  0.00  0.00    +0.002 C 
ATOM     31  CD1 ILE A  10      10.331  13.562   1.869  0.00  0.00    +0.000 C 
ENDBRANCH  28  30
ENDBRANCH  25  28
ENDBRANCH  23  25
ENDBRANCH  20  21
BRANCH  20  32
ATOM     32  CB  PHE A   9      12.484  10.915   8.672  0.00  0.00    +0.055 C 
BRANCH  32  33
ATOM     33  CG  PHE A   9      13.597  11.429   9.455  0.00  0.00    -0.020 A 
ATOM     34  CD2 PHE A   9      13.456  11.663  10.824  0.00  0.00    -0.004 A 
ATOM     35  CE2 PHE A   9      14.514  12.158  11.570  0.00  0.00    -0.000 A 
ATOM     36  CZ  PHE A   9      15.719  12.424  10.958  0.00  0.00    -0.000 A 
ATOM     37  CE1 PHE A   9      15.873  12.196   9.586  0.00  0.00    -0.000 A 
ATOM     38  CD1 PHE A   9      14.824  11.707   8.850  0.00  0.00    -0.004 A 
ENDBRANCH  32  33
ENDBRANCH  20  32
ENDBRANCH  17  20
ENDBRANCH  15  16
ENDBRANCH  13  15
ENDBRANCH  10  11
ENDBRANCH   8  10
ENDBRANCH   5   6
BRANCH   5  39
ATOM     39  CB  ILE A   6      10.161  21.523  10.080  0.00  0.00    +0.027 C 
ATOM     40  CG2 ILE A   6       8.740  21.316   9.521  0.00  0.00    +0.002 C 
BRANCH  39  41
ATOM     41  CG1 ILE A   6      10.115  22.323  11.385  0.00  0.00    +0.002 C 
ATOM     42  CD1 ILE A   6       9.046  23.384  11.406  0.00  0.00    +0.000 C 
ENDBRANCH  39  41
ENDBRANCH   5  39
ENDBRANCH   3   5
BRANCH   1  43
ATOM     43  CA  GLY A   5      12.691  18.103   7.736  0.00  0.00    +0.176 C 
BRANCH  43  45
ATOM     44  C   GLY A   4      14.353  16.381   7.463  0.00  0.00    +0.243 C 
ATOM     45  N   GLY A   5      13.097  16.742   7.732  0.00  0.00    -0.295 N 
ATOM     46  H   GLY A   5      12.395  16.005   7.945  0.00  0.00    +0.150 HD
ATOM     47  O   GLY A   4      15.203  17.168   7.056  0.00  0.00    -0.273 OA
BRANCH  44  48
ATOM     48  CA  GLY A   4      14.690  14.922   7.689  0.00  0.00    +0.176 C 
BRANCH  48  50
ATOM     49  C   ILE A   3      14.943  13.401   5.792  0.00  0.00    +0.241 C 
ATOM     50  N   GLY A   4      15.444  14.348   6.560  0.00  0.00    -0.295 N 
ATOM     51  H   GLY A   4      16.402  14.701   6.363  0.00  0.00    +0.150 HD
ATOM     52  O   ILE A   3      13.806  12.977   5.907  0.00  0.00    -0.273 OA
BRANCH  49  53
ATOM     53  CA  ILE A   3      15.885  12.839   4.719  0.00  0.00    +0.149 C 
BRANCH  53  56
ATOM     54  C   MET A   2      16.449  10.514   4.513  0.00  0.00    +0.241 C 
ATOM     55  O   MET A   2      17.595  10.716   4.847  0.00  0.00    -0.273 OA
ATOM     56  N   ILE A   3      15.552  11.480   4.409  0.00  0.00    -0.297 N 
ATOM     57  H   ILE A   3      14.587  11.249   4.097  0.00  0.00    +0.150 HD
BRANCH  54  58
ATOM     58  CA  MET A   2      15.986   9.149   4.196  0.00  0.00    +0.149 C 
BRANCH  58  60
ATOM     59  C   LYS A   1      16.538   8.313   2.010  0.00  0.00    +0.238 C 
ATOM     60  N   MET A   2      16.881   8.545   3.256  0.00  0.00    -0.297 N 
ATOM     61  H   MET A   2      17.836   8.281   3.571  0.00  0.00    +0.150 HD
ATOM     62  O   LYS A   1      15.385   8.427   1.593  0.00  0.00    -0.274 OA
BRANCH  59  63
ATOM     63  CA  LYS A   1      17.645   7.890   1.105  0.00  0.00    +0.145 C 
BRANCH  63  64
ATOM     64  N   LYS A   1      17.184   6.940   0.132  0.00  0.00    -0.238 NA
ATOM     65  H   LYS A   1      16.214   7.017  -0.235  0.00  0.00    +0.142 HD
ENDBRANCH  63  64
BRANCH  63  66
ATOM     66  CB  LYS A   1      18.245   9.096   0.431  0.00  0.00    +0.026 C 
BRANCH  66  67
ATOM     67  CG  LYS A   1      19.111   9.958   1.361  0.00  0.00    -0.000 C 
BRANCH  67  68
ATOM     68  CD  LYS A   1      19.769  11.070   0.616  0.00  0.00    -0.024 C 
BRANCH  68  69
ATOM     69  CE  LYS A   1      20.302  12.105   1.540  0.00  0.00    -0.086 C 
BRANCH  69  70
ATOM     70  NZ  LYS A   1      21.669  11.876   1.874  0.00  0.00    +0.380 N 
ATOM     71  HZ1 LYS A   1      21.997  12.622   2.520  0.00  0.00    -0.089 HD
ATOM     72  HZ2 LYS A   1      21.761  10.950   2.338  0.00  0.00    -0.089 HD
ATOM     73  HZ3 LYS A   1      22.243  11.889   1.007  0.00  0.00    -0.089 HD
ENDBRANCH  69  70
ENDBRANCH  68  69
ENDBRANCH  67  68
ENDBRANCH  66  67
ENDBRANCH  63  66
ENDBRANCH  59  63
ENDBRANCH  58  60
BRANCH  58  74
ATOM     74  CB  MET A   2      15.931   8.311   5.478  0.00  0.00    +0.041 C 
BRANCH  74  75
ATOM     75  CG  MET A   2      14.945   7.158   5.417  0.00  0.00    +0.060 C 
BRANCH  75  76
ATOM     76  SD  MET A   2      13.386   7.545   6.258  0.00  0.00    -0.139 S 
ATOM     77  CE  MET A   2      13.849   7.211   7.972  0.00  0.00    +0.069 C 
ENDBRANCH  75  76
ENDBRANCH  74  75
ENDBRANCH  58  74
ENDBRANCH  54  58
ENDBRANCH  53  56
BRANCH  53  78
ATOM     78  CB  ILE A   3      15.832  13.758   3.443  0.00  0.00    +0.027 C 
ATOM     79  CG2 ILE A   3      16.887  13.324   2.425  0.00  0.00    +0.002 C 
BRANCH  78  80
ATOM     80  CG1 ILE A   3      14.476  13.725   2.821  0.00  0.00    +0.002 C 
ATOM     81  CD1 ILE A   3      14.306  14.718   1.672  0.00  0.00    +0.000 C 
ENDBRANCH  78  80
ENDBRANCH  53  78
ENDBRANCH  49  53
ENDBRANCH  48  50
ENDBRANCH  44  48
ENDBRANCH  43  45
ENDBRANCH   1  43
TORSDOF 36
REMARK  Name = ../refined-set-2016/4cp7/4cp7_pocket.pdb
REMARK  236 active torsions:
REMARK  status: ('A' for Active; 'I' for Inactive)
REMARK    1  A    between atoms: _1  and  _3
REMARK    2  A    between atoms: _3  and  _4
REMARK    3  A    between atoms: _3  and  _6
REMARK    4  A    between atoms: _6  and  _7
REMARK    5  A    between atoms: _7  and  _8
REMARK    6  A    between atoms: _8  and  _9
REMARK    7  A    between atoms: _18  and  _20
REMARK    8  A    between atoms: _20  and  _21
REMARK    9  A    between atoms: _20  and  _23
REMARK   10  A    between atoms: _23  and  _24
REMARK   11  A    between atoms: _27  and  _29
REMARK   12  A    between atoms: _29  and  _30
REMARK   13  A    between atoms: _29  and  _32
REMARK   14  A    between atoms: _32  and  _33
REMARK   15  A    between atoms: _36  and  _38
REMARK   16  A    between atoms: _38  and  _39
REMARK   17  A    between atoms: _38  and  _41
REMARK   18  A    between atoms: _41  and  _42
REMARK   19  A    between atoms: _45  and  _47
REMARK   20  A    between atoms: _47  and  _48
REMARK   21  A    between atoms: _47  and  _50
REMARK   22  A    between atoms: _50  and  _51
REMARK   23  A    between atoms: _54  and  _56
REMARK   24  A    between atoms: _56  and  _57
REMARK   25  A    between atoms: _59  and  _61
REMARK   26  A    between atoms: _61  and  _62
REMARK   27  A    between atoms: _65  and  _67
REMARK   28  A    between atoms: _67  and  _68
REMARK   29  A    between atoms: _67  and  _70
REMARK   30  A    between atoms: _70  and  _71
REMARK   31  A    between atoms: _74  and  _76
REMARK   32  A    between atoms: _76  and  _77
REMARK   33  A    between atoms: _76  and  _79
REMARK   34  A    between atoms: _79  and  _80
REMARK   35  A    between atoms: _83  and  _85
REMARK   36  A    between atoms: _85  and  _86
REMARK   37  A    between atoms: _85  and  _88
REMARK   38  A    between atoms: _88  and  _89
REMARK   39  A    between atoms: _92  and  _94
REMARK   40  A    between atoms: _94  and  _95
REMARK   41  A    between atoms: _94  and  _97
REMARK   42  A    between atoms: _100  and  _102
REMARK   43  A    between atoms: _102  and  _103
REMARK   44  A    between atoms: _102  and  _105
REMARK   45  A    between atoms: _105  and  _106
REMARK   46  A    between atoms: _106  and  _107
REMARK   47  A    between atoms: _107  and  _108
REMARK   48  A    between atoms: _108  and  _109
REMARK   49  A    between atoms: _113  and  _115
REMARK   50  A    between atoms: _115  and  _116
REMARK   51  A    between atoms: _115  and  _118
REMARK   52  A    between atoms: _118  and  _119
REMARK   53  A    between atoms: _119  and  _120
REMARK   54  A    between atoms: _122  and  _124
REMARK   55  A    between atoms: _124  and  _125
REMARK   56  A    between atoms: _124  and  _127
REMARK   57  A    between atoms: _127  and  _128
REMARK   58  A    between atoms: _131  and  _133
REMARK   59  A    between atoms: _133  and  _134
REMARK   60  A    between atoms: _136  and  _138
REMARK   61  A    between atoms: _138  and  _139
REMARK   62  A    between atoms: _141  and  _143
REMARK   63  A    between atoms: _143  and  _144
REMARK   64  A    between atoms: _143  and  _146
REMARK   65  A    between atoms: _146  and  _147
REMARK   66  A    between atoms: _150  and  _152
REMARK   67  A    between atoms: _152  and  _153
REMARK   68  A    between atoms: _155  and  _157
REMARK   69  A    between atoms: _157  and  _158
REMARK   70  A    between atoms: _160  and  _162
REMARK   71  A    between atoms: _162  and  _163
REMARK   72  A    between atoms: _162  and  _165
REMARK   73  A    between atoms: _165  and  _166
REMARK   74  A    between atoms: _172  and  _174
REMARK   75  A    between atoms: _174  and  _175
REMARK   76  A    between atoms: _174  and  _177
REMARK   77  A    between atoms: _177  and  _178
REMARK   78  A    between atoms: _181  and  _183
REMARK   79  A    between atoms: _183  and  _184
REMARK   80  A    between atoms: _183  and  _186
REMARK   81  A    between atoms: _186  and  _187
REMARK   82  A    between atoms: _190  and  _192
REMARK   83  A    between atoms: _192  and  _193
REMARK   84  A    between atoms: _192  and  _195
REMARK   85  A    between atoms: _195  and  _196
REMARK   86  A    between atoms: _200  and  _201
REMARK   87  A    between atoms: _206  and  _208
REMARK   88  A    between atoms: _208  and  _209
REMARK   89  A    between atoms: _208  and  _211
REMARK   90  A    between atoms: _211  and  _212
REMARK   91  A    between atoms: _215  and  _217
REMARK   92  A    between atoms: _217  and  _218
REMARK   93  A    between atoms: _217  and  _220
REMARK   94  A    between atoms: _220  and  _221
REMARK   95  A    between atoms: _226  and  _228
REMARK   96  A    between atoms: _228  and  _229
REMARK   97  A    between atoms: _228  and  _231
REMARK   98  A    between atoms: _234  and  _236
REMARK   99  A    between atoms: _236  and  _237
REMARK  100  A    between atoms: _236  and  _239
REMARK  101  A    between atoms: _239  and  _240
REMARK  102  A    between atoms: _243  and  _245
REMARK  103  A    between atoms: _245  and  _246
REMARK  104  A    between atoms: _248  and  _250
REMARK  105  A    between atoms: _250  and  _251
REMARK  106  A    between atoms: _250  and  _253
REMARK  107  A    between atoms: _253  and  _254
REMARK  108  A    between atoms: _254  and  _255
REMARK  109  A    between atoms: _255  and  _256
REMARK  110  A    between atoms: _265  and  _267
REMARK  111  A    between atoms: _267  and  _268
REMARK  112  A    between atoms: _267  and  _270
REMARK  113  A    between atoms: _270  and  _271
REMARK  114  A    between atoms: _276  and  _278
REMARK  115  A    between atoms: _278  and  _279
REMARK  116  A    between atoms: _278  and  _281
REMARK  117  A    between atoms: _281  and  _282
REMARK  118  A    between atoms: _282  and  _283
REMARK  119  A    between atoms: _283  and  _284
REMARK  120  A    between atoms: _293  and  _295
REMARK  121  A    between atoms: _295  and  _296
REMARK  122  A    between atoms: _295  and  _298
REMARK  123  A    between atoms: _298  and  _299
REMARK  124  A    between atoms: _302  and  _304
REMARK  125  A    between atoms: _304  and  _305
REMARK  126  A    between atoms: _304  and  _307
REMARK  127  A    between atoms: _307  and  _308
REMARK  128  A    between atoms: _311  and  _313
REMARK  129  A    between atoms: _313  and  _314
REMARK  130  A    between atoms: _313  and  _316
REMARK  131  A    between atoms: _316  and  _317
REMARK  132  A    between atoms: _320  and  _322
REMARK  133  A    between atoms: _322  and  _323
REMARK  134  A    between atoms: _322  and  _325
REMARK  135  A    between atoms: _325  and  _326
REMARK  136  A    between atoms: _329  and  _331
REMARK  137  A    between atoms: _331  and  _332
REMARK  138  A    between atoms: _331  and  _334
REMARK  139  A    between atoms: _334  and  _335
REMARK  140  A    between atoms: _338  and  _340
REMARK  141  A    between atoms: _340  and  _341
REMARK  142  A    between atoms: _343  and  _345
REMARK  143  A    between atoms: _345  and  _346
REMARK  144  A    between atoms: _349  and  _351
REMARK  145  A    between atoms: _351  and  _352
REMARK  146  A    between atoms: _351  and  _354
REMARK  147  A    between atoms: _354  and  _355
REMARK  148  A    between atoms: _358  and  _360
REMARK  149  A    between atoms: _360  and  _361
REMARK  150  A    between atoms: _360  and  _363
REMARK  151  A    between atoms: _363  and  _364
REMARK  152  A    between atoms: _367  and  _369
REMARK  153  A    between atoms: _369  and  _370
REMARK  154  A    between atoms: _369  and  _372
REMARK  155  A    between atoms: _372  and  _373
REMARK  156  A    between atoms: _376  and  _378
REMARK  157  A    between atoms: _378  and  _379
REMARK  158  A    between atoms: _378  and  _381
REMARK  159  A    between atoms: _384  and  _386
REMARK  160  A    between atoms: _386  and  _387
REMARK  161  A    between atoms: _386  and  _389
REMARK  162  A    between atoms: _389  and  _390
REMARK  163  A    between atoms: _390  and  _391
REMARK  164  A    between atoms: _394  and  _396
REMARK  165  A    between atoms: _396  and  _397
REMARK  166  A    between atoms: _396  and  _399
REMARK  167  A    between atoms: _399  and  _400
REMARK  168  A    between atoms: _400  and  _401
REMARK  169  A    between atoms: _401  and  _402
REMARK  170  A    between atoms: _402  and  _403
REMARK  171  A    between atoms: _407  and  _409
REMARK  172  A    between atoms: _409  and  _410
REMARK  173  A    between atoms: _409  and  _412
REMARK  174  A    between atoms: _412  and  _413
REMARK  175  A    between atoms: _413  and  _414
REMARK  176  A    between atoms: _416  and  _418
REMARK  177  A    between atoms: _418  and  _419
REMARK  178  A    between atoms: _418  and  _421
REMARK  179  A    between atoms: _421  and  _422
REMARK  180  A    between atoms: _425  and  _427
REMARK  181  A    between atoms: _427  and  _428
REMARK  182  A    between atoms: _430  and  _432
REMARK  183  A    between atoms: _432  and  _433
REMARK  184  A    between atoms: _435  and  _437
REMARK  185  A    between atoms: _437  and  _438
REMARK  186  A    between atoms: _437  and  _440
REMARK  187  A    between atoms: _440  and  _441
REMARK  188  A    between atoms: _444  and  _446
REMARK  189  A    between atoms: _446  and  _447
REMARK  190  A    between atoms: _449  and  _451
REMARK  191  A    between atoms: _451  and  _452
REMARK  192  A    between atoms: _454  and  _456
REMARK  193  A    between atoms: _456  and  _457
REMARK  194  A    between atoms: _456  and  _459
REMARK  195  A    between atoms: _459  and  _460
REMARK  196  A    between atoms: _466  and  _468
REMARK  197  A    between atoms: _468  and  _469
REMARK  198  A    between atoms: _468  and  _471
REMARK  199  A    between atoms: _471  and  _472
REMARK  200  A    between atoms: _475  and  _477
REMARK  201  A    between atoms: _477  and  _478
REMARK  202  A    between atoms: _477  and  _480
REMARK  203  A    between atoms: _483  and  _485
REMARK  204  A    between atoms: _485  and  _486
REMARK  205  A    between atoms: _485  and  _488
REMARK  206  A    between atoms: _488  and  _489
REMARK  207  A    between atoms: _492  and  _494
REMARK  208  A    between atoms: _494  and  _495
REMARK  209  A    between atoms: _494  and  _497
REMARK  210  A    between atoms: _495  and  _496
REMARK  211  A    between atoms: _495  and  _501
REMARK  212  A    between atoms: _497  and  _498
REMARK  213  A    between atoms: _502  and  _503
REMARK  214  A    between atoms: _508  and  _510
REMARK  215  A    between atoms: _510  and  _511
REMARK  216  A    between atoms: _510  and  _513
REMARK  217  A    between atoms: _513  and  _514
REMARK  218  A    between atoms: _517  and  _519
REMARK  219  A    between atoms: _519  and  _520
REMARK  220  A    between atoms: _519  and  _522
REMARK  221  A    between atoms: _522  and  _523
REMARK  222  A    between atoms: _528  and  _530
REMARK  223  A    between atoms: _530  and  _531
REMARK  224  A    between atoms: _530  and  _533
REMARK  225  A    between atoms: _536  and  _538
REMARK  226  A    between atoms: _538  and  _539
REMARK  227  A    between atoms: _538  and  _541
REMARK  228  A    between atoms: _541  and  _542
REMARK  229  A    between atoms: _545  and  _547
REMARK  230  A    between atoms: _547  and  _548
REMARK  231  A    between atoms: _550  and  _552
REMARK  232  A    between atoms: _552  and  _553
REMARK  233  A    between atoms: _552  and  _555
REMARK  234  A    between atoms: _555  and  _556
REMARK  235  A    between atoms: _556  and  _557
REMARK  236  A    between atoms: _557  and  _558
REMARK                            x       y       z     vdW  Elec       q    Type
REMARK                         _______ _______ _______ _____ _____    ______ ____
ROOT
ATOM      1  CA  VAL A   1      13.001   9.517  -1.188  0.00  0.00    +0.133 C 
ENDROOT
BRANCH   1   2
ATOM      2  CB  VAL A   1      13.627  10.953  -1.206  0.00  0.00    +0.023 C 
ATOM      3  CG2 VAL A   1      12.765  11.914  -0.425  0.00  0.00    +0.002 C 
ATOM      4  CG1 VAL A   1      15.026  10.922  -0.652  0.00  0.00    +0.002 C 
ENDBRANCH   1   2
BRANCH   1   5
ATOM      5  N   VAL A   1      12.963   8.971   0.165  0.00  0.00    -0.239 NA
ATOM      6  H   VAL A   1      13.850   8.659   0.610  0.00  0.00    +0.142 HD
ENDBRANCH   1   5
BRANCH   1   7
ATOM      7  C   VAL A   1      13.818   8.623  -2.095  0.00  0.00    +0.224 C 
ATOM      8  O   VAL A   1      14.596   7.756  -1.613  0.00  0.00    -0.287 OA
ENDBRANCH   1   7
TORSDOF 3
REMARK  Name = ../refined-set-2016/4cp7/4cp7_pocket.pdb
REMARK  236 active torsions:
REMARK  status: ('A' for Active; 'I' for Inactive)
REMARK    1  A    between atoms: _1  and  _3
REMARK    2  A    between atoms: _3  and  _4
REMARK    3  A    between atoms: _3  and  _6
REMARK    4  A    between atoms: _6  and  _7
REMARK    5  A    between atoms: _7  and  _8
REMARK    6  A    between atoms: _8  and  _9
REMARK    7  A    between atoms: _18  and  _20
REMARK    8  A    between atoms: _20  and  _21
REMARK    9  A    between atoms: _20  and  _23
REMARK   10  A    between atoms: _23  and  _24
REMARK   11  A    between atoms: _27  and  _29
REMARK   12  A    between atoms: _29  and  _30
REMARK   13  A    between atoms: _29  and  _32
REMARK   14  A    between atoms: _32  and  _33
REMARK   15  A    between atoms: _36  and  _38
REMARK   16  A    between atoms: _38  and  _39
REMARK   17  A    between atoms: _38  and  _41
REMARK   18  A    between atoms: _41  and  _42
REMARK   19  A    between atoms: _45  and  _47
REMARK   20  A    between atoms: _47  and  _48
REMARK   21  A    between atoms: _47  and  _50
REMARK   22  A    between atoms: _50  and  _51
REMARK   23  A    between atoms: _54  and  _56
REMARK   24  A    between atoms: _56  and  _57
REMARK   25  A    between atoms: _59  and  _61
REMARK   26  A    between atoms: _61  and  _62
REMARK   27  A    between atoms: _65  and  _67
REMARK   28  A    between atoms: _67  and  _68
REMARK   29  A    between atoms: _67  and  _70
REMARK   30  A    between atoms: _70  and  _71
REMARK   31  A    between atoms: _74  and  _76
REMARK   32  A    between atoms: _76  and  _77
REMARK   33  A    between atoms: _76  and  _79
REMARK   34  A    between atoms: _79  and  _80
REMARK   35  A    between atoms: _83  and  _85
REMARK   36  A    between atoms: _85  and  _86
REMARK   37  A    between atoms: _85  and  _88
REMARK   38  A    between atoms: _88  and  _89
REMARK   39  A    between atoms: _92  and  _94
REMARK   40  A    between atoms: _94  and  _95
REMARK   41  A    between atoms: _94  and  _97
REMARK   42  A    between atoms: _100  and  _102
REMARK   43  A    between atoms: _102  and  _103
REMARK   44  A    between atoms: _102  and  _105
REMARK   45  A    between atoms: _105  and  _106
REMARK   46  A    between atoms: _106  and  _107
REMARK   47  A    between atoms: _107  and  _108
REMARK   48  A    between atoms: _108  and  _109
REMARK   49  A    between atoms: _113  and  _115
REMARK   50  A    between atoms: _115  and  _116
REMARK   51  A    between atoms: _115  and  _118
REMARK   52  A    between atoms: _118  and  _119
REMARK   53  A    between atoms: _119  and  _120
REMARK   54  A    between atoms: _122  and  _124
REMARK   55  A    between atoms: _124  and  _125
REMARK   56  A    between atoms: _124  and  _127
REMARK   57  A    between atoms: _127  and  _128
REMARK   58  A    between atoms: _131  and  _133
REMARK   59  A    between atoms: _133  and  _134
REMARK   60  A    between atoms: _136  and  _138
REMARK   61  A    between atoms: _138  and  _139
REMARK   62  A    between atoms: _141  and  _143
REMARK   63  A    between atoms: _143  and  _144
REMARK   64  A    between atoms: _143  and  _146
REMARK   65  A    between atoms: _146  and  _147
REMARK   66  A    between atoms: _150  and  _152
REMARK   67  A    between atoms: _152  and  _153
REMARK   68  A    between atoms: _155  and  _157
REMARK   69  A    between atoms: _157  and  _158
REMARK   70  A    between atoms: _160  and  _162
REMARK   71  A    between atoms: _162  and  _163
REMARK   72  A    between atoms: _162  and  _165
REMARK   73  A    between atoms: _165  and  _166
REMARK   74  A    between atoms: _172  and  _174
REMARK   75  A    between atoms: _174  and  _175
REMARK   76  A    between atoms: _174  and  _177
REMARK   77  A    between atoms: _177  and  _178
REMARK   78  A    between atoms: _181  and  _183
REMARK   79  A    between atoms: _183  and  _184
REMARK   80  A    between atoms: _183  and  _186
REMARK   81  A    between atoms: _186  and  _187
REMARK   82  A    between atoms: _190  and  _192
REMARK   83  A    between atoms: _192  and  _193
REMARK   84  A    between atoms: _192  and  _195
REMARK   85  A    between atoms: _195  and  _196
REMARK   86  A    between atoms: _200  and  _201
REMARK   87  A    between atoms: _206  and  _208
REMARK   88  A    between atoms: _208  and  _209
REMARK   89  A    between atoms: _208  and  _211
REMARK   90  A    between atoms: _211  and  _212
REMARK   91  A    between atoms: _215  and  _217
REMARK   92  A    between atoms: _217  and  _218
REMARK   93  A    between atoms: _217  and  _220
REMARK   94  A    between atoms: _220  and  _221
REMARK   95  A    between atoms: _226  and  _228
REMARK   96  A    between atoms: _228  and  _229
REMARK   97  A    between atoms: _228  and  _231
REMARK   98  A    between atoms: _234  and  _236
REMARK   99  A    between atoms: _236  and  _237
REMARK  100  A    between atoms: _236  and  _239
REMARK  101  A    between atoms: _239  and  _240
REMARK  102  A    between atoms: _243  and  _245
REMARK  103  A    between atoms: _245  and  _246
REMARK  104  A    between atoms: _248  and  _250
REMARK  105  A    between atoms: _250  and  _251
REMARK  106  A    between atoms: _250  and  _253
REMARK  107  A    between atoms: _253  and  _254
REMARK  108  A    between atoms: _254  and  _255
REMARK  109  A    between atoms: _255  and  _256
REMARK  110  A    between atoms: _265  and  _267
REMARK  111  A    between atoms: _267  and  _268
REMARK  112  A    between atoms: _267  and  _270
REMARK  113  A    between atoms: _270  and  _271
REMARK  114  A    between atoms: _276  and  _278
REMARK  115  A    between atoms: _278  and  _279
REMARK  116  A    between atoms: _278  and  _281
REMARK  117  A    between atoms: _281  and  _282
REMARK  118  A    between atoms: _282  and  _283
REMARK  119  A    between atoms: _283  and  _284
REMARK  120  A    between atoms: _293  and  _295
REMARK  121  A    between atoms: _295  and  _296
REMARK  122  A    between atoms: _295  and  _298
REMARK  123  A    between atoms: _298  and  _299
REMARK  124  A    between atoms: _302  and  _304
REMARK  125  A    between atoms: _304  and  _305
REMARK  126  A    between atoms: _304  and  _307
REMARK  127  A    between atoms: _307  and  _308
REMARK  128  A    between atoms: _311  and  _313
REMARK  129  A    between atoms: _313  and  _314
REMARK  130  A    between atoms: _313  and  _316
REMARK  131  A    between atoms: _316  and  _317
REMARK  132  A    between atoms: _320  and  _322
REMARK  133  A    between atoms: _322  and  _323
REMARK  134  A    between atoms: _322  and  _325
REMARK  135  A    between atoms: _325  and  _326
REMARK  136  A    between atoms: _329  and  _331
REMARK  137  A    between atoms: _331  and  _332
REMARK  138  A    between atoms: _331  and  _334
REMARK  139  A    between atoms: _334  and  _335
REMARK  140  A    between atoms: _338  and  _340
REMARK  141  A    between atoms: _340  and  _341
REMARK  142  A    between atoms: _343  and  _345
REMARK  143  A    between atoms: _345  and  _346
REMARK  144  A    between atoms: _349  and  _351
REMARK  145  A    between atoms: _351  and  _352
REMARK  146  A    between atoms: _351  and  _354
REMARK  147  A    between atoms: _354  and  _355
REMARK  148  A    between atoms: _358  and  _360
REMARK  149  A    between atoms: _360  and  _361
REMARK  150  A    between atoms: _360  and  _363
REMARK  151  A    between atoms: _363  and  _364
REMARK  152  A    between atoms: _367  and  _369
REMARK  153  A    between atoms: _369  and  _370
REMARK  154  A    between atoms: _369  and  _372
REMARK  155  A    between atoms: _372  and  _373
REMARK  156  A    between atoms: _376  and  _378
REMARK  157  A    between atoms: _378  and  _379
REMARK  158  A    between atoms: _378  and  _381
REMARK  159  A    between atoms: _384  and  _386
REMARK  160  A    between atoms: _386  and  _387
REMARK  161  A    between atoms: _386  and  _389
REMARK  162  A    between atoms: _389  and  _390
REMARK  163  A    between atoms: _390  and  _391
REMARK  164  A    between atoms: _394  and  _396
REMARK  165  A    between atoms: _396  and  _397
REMARK  166  A    between atoms: _396  and  _399
REMARK  167  A    between atoms: _399  and  _400
REMARK  168  A    between atoms: _400  and  _401
REMARK  169  A    between atoms: _401  and  _402
REMARK  170  A    between atoms: _402  and  _403
REMARK  171  A    between atoms: _407  and  _409
REMARK  172  A    between atoms: _409  and  _410
REMARK  173  A    between atoms: _409  and  _412
REMARK  174  A    between atoms: _412  and  _413
REMARK  175  A    between atoms: _413  and  _414
REMARK  176  A    between atoms: _416  and  _418
REMARK  177  A    between atoms: _418  and  _419
REMARK  178  A    between atoms: _418  and  _421
REMARK  179  A    between atoms: _421  and  _422
REMARK  180  A    between atoms: _425  and  _427
REMARK  181  A    between atoms: _427  and  _428
REMARK  182  A    between atoms: _430  and  _432
REMARK  183  A    between atoms: _432  and  _433
REMARK  184  A    between atoms: _435  and  _437
REMARK  185  A    between atoms: _437  and  _438
REMARK  186  A    between atoms: _437  and  _440
REMARK  187  A    between atoms: _440  and  _441
REMARK  188  A    between atoms: _444  and  _446
REMARK  189  A    between atoms: _446  and  _447
REMARK  190  A    between atoms: _449  and  _451
REMARK  191  A    between atoms: _451  and  _452
REMARK  192  A    between atoms: _454  and  _456
REMARK  193  A    between atoms: _456  and  _457
REMARK  194  A    between atoms: _456  and  _459
REMARK  195  A    between atoms: _459  and  _460
REMARK  196  A    between atoms: _466  and  _468
REMARK  197  A    between atoms: _468  and  _469
REMARK  198  A    between atoms: _468  and  _471
REMARK  199  A    between atoms: _471  and  _472
REMARK  200  A    between atoms: _475  and  _477
REMARK  201  A    between atoms: _477  and  _478
REMARK  202  A    between atoms: _477  and  _480
REMARK  203  A    between atoms: _483  and  _485
REMARK  204  A    between atoms: _485  and  _486
REMARK  205  A    between atoms: _485  and  _488
REMARK  206  A    between atoms: _488  and  _489
REMARK  207  A    between atoms: _492  and  _494
REMARK  208  A    between atoms: _494  and  _495
REMARK  209  A    between atoms: _494  and  _497
REMARK  210  A    between atoms: _495  and  _496
REMARK  211  A    between atoms: _495  and  _501
REMARK  212  A    between atoms: _497  and  _498
REMARK  213  A    between atoms: _502  and  _503
REMARK  214  A    between atoms: _508  and  _510
REMARK  215  A    between atoms: _510  and  _511
REMARK  216  A    between atoms: _510  and  _513
REMARK  217  A    between atoms: _513  and  _514
REMARK  218  A    between atoms: _517  and  _519
REMARK  219  A    between atoms: _519  and  _520
REMARK  220  A    between atoms: _519  and  _522
REMARK  221  A    between atoms: _522  and  _523
REMARK  222  A    between atoms: _528  and  _530
REMARK  223  A    between atoms: _530  and  _531
REMARK  224  A    between atoms: _530  and  _533
REMARK  225  A    between atoms: _536  and  _538
REMARK  226  A    between atoms: _538  and  _539
REMARK  227  A    between atoms: _538  and  _541
REMARK  228  A    between atoms: _541  and  _542
REMARK  229  A    between atoms: _545  and  _547
REMARK  230  A    between atoms: _547  and  _548
REMARK  231  A    between atoms: _550  and  _552
REMARK  232  A    between atoms: _552  and  _553
REMARK  233  A    between atoms: _552  and  _555
REMARK  234  A    between atoms: _555  and  _556
REMARK  235  A    between atoms: _556  and  _557
REMARK  236  A    between atoms: _557  and  _558
REMARK                            x       y       z     vdW  Elec       q    Type
REMARK                         _______ _______ _______ _____ _____    ______ ____
ROOT
ATOM      1  CA  LEU A   1      15.947  13.366  -4.743  0.00  0.00    +0.133 C 
ENDROOT
BRANCH   1   2
ATOM      2  N   LEU A   1      16.784  14.263  -5.487  0.00  0.00    -0.239 NA
ATOM      3  H   LEU A   1      16.875  15.248  -5.167  0.00  0.00    +0.142 HD
ENDBRANCH   1   2
BRANCH   1   4
ATOM      4  C   LEU A   1      14.500  13.553  -5.153  0.00  0.00    +0.224 C 
ATOM      5  O   LEU A   1      14.063  14.675  -5.445  0.00  0.00    -0.287 OA
ENDBRANCH   1   4
BRANCH   1   6
ATOM      6  CB  LEU A   1      16.101  13.624  -3.240  0.00  0.00    +0.025 C 
BRANCH   6   7
ATOM      7  CG  LEU A   1      17.547  13.703  -2.712  0.00  0.00    +0.002 C 
ATOM      8  CD2 LEU A   1      17.556  13.921  -1.202  0.00  0.00    +0.000 C 
ATOM      9  CD1 LEU A   1      18.320  12.462  -3.075  0.00  0.00    +0.000 C 
ENDBRANCH   6   7
ENDBRANCH   1   6
TORSDOF 4
REMARK  Name = ../refined-set-2016/4cp7/4cp7_pocket.pdb
REMARK  236 active torsions:
REMARK  status: ('A' for Active; 'I' for Inactive)
REMARK    1  A    between atoms: _1  and  _3
REMARK    2  A    between atoms: _3  and  _4
REMARK    3  A    between atoms: _3  and  _6
REMARK    4  A    between atoms: _6  and  _7
REMARK    5  A    between atoms: _7  and  _8
REMARK    6  A    between atoms: _8  and  _9
REMARK    7  A    between atoms: _18  and  _20
REMARK    8  A    between atoms: _20  and  _21
REMARK    9  A    between atoms: _20  and  _23
REMARK   10  A    between atoms: _23  and  _24
REMARK   11  A    between atoms: _27  and  _29
REMARK   12  A    between atoms: _29  and  _30
REMARK   13  A    between atoms: _29  and  _32
REMARK   14  A    between atoms: _32  and  _33
REMARK   15  A    between atoms: _36  and  _38
REMARK   16  A    between atoms: _38  and  _39
REMARK   17  A    between atoms: _38  and  _41
REMARK   18  A    between atoms: _41  and  _42
REMARK   19  A    between atoms: _45  and  _47
REMARK   20  A    between atoms: _47  and  _48
REMARK   21  A    between atoms: _47  and  _50
REMARK   22  A    between atoms: _50  and  _51
REMARK   23  A    between atoms: _54  and  _56
REMARK   24  A    between atoms: _56  and  _57
REMARK   25  A    between atoms: _59  and  _61
REMARK   26  A    between atoms: _61  and  _62
REMARK   27  A    between atoms: _65  and  _67
REMARK   28  A    between atoms: _67  and  _68
REMARK   29  A    between atoms: _67  and  _70
REMARK   30  A    between atoms: _70  and  _71
REMARK   31  A    between atoms: _74  and  _76
REMARK   32  A    between atoms: _76  and  _77
REMARK   33  A    between atoms: _76  and  _79
REMARK   34  A    between atoms: _79  and  _80
REMARK   35  A    between atoms: _83  and  _85
REMARK   36  A    between atoms: _85  and  _86
REMARK   37  A    between atoms: _85  and  _88
REMARK   38  A    between atoms: _88  and  _89
REMARK   39  A    between atoms: _92  and  _94
REMARK   40  A    between atoms: _94  and  _95
REMARK   41  A    between atoms: _94  and  _97
REMARK   42  A    between atoms: _100  and  _102
REMARK   43  A    between atoms: _102  and  _103
REMARK   44  A    between atoms: _102  and  _105
REMARK   45  A    between atoms: _105  and  _106
REMARK   46  A    between atoms: _106  and  _107
REMARK   47  A    between atoms: _107  and  _108
REMARK   48  A    between atoms: _108  and  _109
REMARK   49  A    between atoms: _113  and  _115
REMARK   50  A    between atoms: _115  and  _116
REMARK   51  A    between atoms: _115  and  _118
REMARK   52  A    between atoms: _118  and  _119
REMARK   53  A    between atoms: _119  and  _120
REMARK   54  A    between atoms: _122  and  _124
REMARK   55  A    between atoms: _124  and  _125
REMARK   56  A    between atoms: _124  and  _127
REMARK   57  A    between atoms: _127  and  _128
REMARK   58  A    between atoms: _131  and  _133
REMARK   59  A    between atoms: _133  and  _134
REMARK   60  A    between atoms: _136  and  _138
REMARK   61  A    between atoms: _138  and  _139
REMARK   62  A    between atoms: _141  and  _143
REMARK   63  A    between atoms: _143  and  _144
REMARK   64  A    between atoms: _143  and  _146
REMARK   65  A    between atoms: _146  and  _147
REMARK   66  A    between atoms: _150  and  _152
REMARK   67  A    between atoms: _152  and  _153
REMARK   68  A    between atoms: _155  and  _157
REMARK   69  A    between atoms: _157  and  _158
REMARK   70  A    between atoms: _160  and  _162
REMARK   71  A    between atoms: _162  and  _163
REMARK   72  A    between atoms: _162  and  _165
REMARK   73  A    between atoms: _165  and  _166
REMARK   74  A    between atoms: _172  and  _174
REMARK   75  A    between atoms: _174  and  _175
REMARK   76  A    between atoms: _174  and  _177
REMARK   77  A    between atoms: _177  and  _178
REMARK   78  A    between atoms: _181  and  _183
REMARK   79  A    between atoms: _183  and  _184
REMARK   80  A    between atoms: _183  and  _186
REMARK   81  A    between atoms: _186  and  _187
REMARK   82  A    between atoms: _190  and  _192
REMARK   83  A    between atoms: _192  and  _193
REMARK   84  A    between atoms: _192  and  _195
REMARK   85  A    between atoms: _195  and  _196
REMARK   86  A    between atoms: _200  and  _201
REMARK   87  A    between atoms: _206  and  _208
REMARK   88  A    between atoms: _208  and  _209
REMARK   89  A    between atoms: _208  and  _211
REMARK   90  A    between atoms: _211  and  _212
REMARK   91  A    between atoms: _215  and  _217
REMARK   92  A    between atoms: _217  and  _218
REMARK   93  A    between atoms: _217  and  _220
REMARK   94  A    between atoms: _220  and  _221
REMARK   95  A    between atoms: _226  and  _228
REMARK   96  A    between atoms: _228  and  _229
REMARK   97  A    between atoms: _228  and  _231
REMARK   98  A    between atoms: _234  and  _236
REMARK   99  A    between atoms: _236  and  _237
REMARK  100  A    between atoms: _236  and  _239
REMARK  101  A    between atoms: _239  and  _240
REMARK  102  A    between atoms: _243  and  _245
REMARK  103  A    between atoms: _245  and  _246
REMARK  104  A    between atoms: _248  and  _250
REMARK  105  A    between atoms: _250  and  _251
REMARK  106  A    between atoms: _250  and  _253
REMARK  107  A    between atoms: _253  and  _254
REMARK  108  A    between atoms: _254  and  _255
REMARK  109  A    between atoms: _255  and  _256
REMARK  110  A    between atoms: _265  and  _267
REMARK  111  A    between atoms: _267  and  _268
REMARK  112  A    between atoms: _267  and  _270
REMARK  113  A    between atoms: _270  and  _271
REMARK  114  A    between atoms: _276  and  _278
REMARK  115  A    between atoms: _278  and  _279
REMARK  116  A    between atoms: _278  and  _281
REMARK  117  A    between atoms: _281  and  _282
REMARK  118  A    between atoms: _282  and  _283
REMARK  119  A    between atoms: _283  and  _284
REMARK  120  A    between atoms: _293  and  _295
REMARK  121  A    between atoms: _295  and  _296
REMARK  122  A    between atoms: _295  and  _298
REMARK  123  A    between atoms: _298  and  _299
REMARK  124  A    between atoms: _302  and  _304
REMARK  125  A    between atoms: _304  and  _305
REMARK  126  A    between atoms: _304  and  _307
REMARK  127  A    between atoms: _307  and  _308
REMARK  128  A    between atoms: _311  and  _313
REMARK  129  A    between atoms: _313  and  _314
REMARK  130  A    between atoms: _313  and  _316
REMARK  131  A    between atoms: _316  and  _317
REMARK  132  A    between atoms: _320  and  _322
REMARK  133  A    between atoms: _322  and  _323
REMARK  134  A    between atoms: _322  and  _325
REMARK  135  A    between atoms: _325  and  _326
REMARK  136  A    between atoms: _329  and  _331
REMARK  137  A    between atoms: _331  and  _332
REMARK  138  A    between atoms: _331  and  _334
REMARK  139  A    between atoms: _334  and  _335
REMARK  140  A    between atoms: _338  and  _340
REMARK  141  A    between atoms: _340  and  _341
REMARK  142  A    between atoms: _343  and  _345
REMARK  143  A    between atoms: _345  and  _346
REMARK  144  A    between atoms: _349  and  _351
REMARK  145  A    between atoms: _351  and  _352
REMARK  146  A    between atoms: _351  and  _354
REMARK  147  A    between atoms: _354  and  _355
REMARK  148  A    between atoms: _358  and  _360
REMARK  149  A    between atoms: _360  and  _361
REMARK  150  A    between atoms: _360  and  _363
REMARK  151  A    between atoms: _363  and  _364
REMARK  152  A    between atoms: _367  and  _369
REMARK  153  A    between atoms: _369  and  _370
REMARK  154  A    between atoms: _369  and  _372
REMARK  155  A    between atoms: _372  and  _373
REMARK  156  A    between atoms: _376  and  _378
REMARK  157  A    between atoms: _378  and  _379
REMARK  158  A    between atoms: _378  and  _381
REMARK  159  A    between atoms: _384  and  _386
REMARK  160  A    between atoms: _386  and  _387
REMARK  161  A    between atoms: _386  and  _389
REMARK  162  A    between atoms: _389  and  _390
REMARK  163  A    between atoms: _390  and  _391
REMARK  164  A    between atoms: _394  and  _396
REMARK  165  A    between atoms: _396  and  _397
REMARK  166  A    between atoms: _396  and  _399
REMARK  167  A    between atoms: _399  and  _400
REMARK  168  A    between atoms: _400  and  _401
REMARK  169  A    between atoms: _401  and  _402
REMARK  170  A    between atoms: _402  and  _403
REMARK  171  A    between atoms: _407  and  _409
REMARK  172  A    between atoms: _409  and  _410
REMARK  173  A    between atoms: _409  and  _412
REMARK  174  A    between atoms: _412  and  _413
REMARK  175  A    between atoms: _413  and  _414
REMARK  176  A    between atoms: _416  and  _418
REMARK  177  A    between atoms: _418  and  _419
REMARK  178  A    between atoms: _418  and  _421
REMARK  179  A    between atoms: _421  and  _422
REMARK  180  A    between atoms: _425  and  _427
REMARK  181  A    between atoms: _427  and  _428
REMARK  182  A    between atoms: _430  and  _432
REMARK  183  A    between atoms: _432  and  _433
REMARK  184  A    between atoms: _435  and  _437
REMARK  185  A    between atoms: _437  and  _438
REMARK  186  A    between atoms: _437  and  _440
REMARK  187  A    between atoms: _440  and  _441
REMARK  188  A    between atoms: _444  and  _446
REMARK  189  A    between atoms: _446  and  _447
REMARK  190  A    between atoms: _449  and  _451
REMARK  191  A    between atoms: _451  and  _452
REMARK  192  A    between atoms: _454  and  _456
REMARK  193  A    between atoms: _456  and  _457
REMARK  194  A    between atoms: _456  and  _459
REMARK  195  A    between atoms: _459  and  _460
REMARK  196  A    between atoms: _466  and  _468
REMARK  197  A    between atoms: _468  and  _469
REMARK  198  A    between atoms: _468  and  _471
REMARK  199  A    between atoms: _471  and  _472
REMARK  200  A    between atoms: _475  and  _477
REMARK  201  A    between atoms: _477  and  _478
REMARK  202  A    between atoms: _477  and  _480
REMARK  203  A    between atoms: _483  and  _485
REMARK  204  A    between atoms: _485  and  _486
REMARK  205  A    between atoms: _485  and  _488
REMARK  206  A    between atoms: _488  and  _489
REMARK  207  A    between atoms: _492  and  _494
REMARK  208  A    between atoms: _494  and  _495
REMARK  209  A    between atoms: _494  and  _497
REMARK  210  A    between atoms: _495  and  _496
REMARK  211  A    between atoms: _495  and  _501
REMARK  212  A    between atoms: _497  and  _498
REMARK  213  A    between atoms: _502  and  _503
REMARK  214  A    between atoms: _508  and  _510
REMARK  215  A    between atoms: _510  and  _511
REMARK  216  A    between atoms: _510  and  _513
REMARK  217  A    between atoms: _513  and  _514
REMARK  218  A    between atoms: _517  and  _519
REMARK  219  A    between atoms: _519  and  _520
REMARK  220  A    between atoms: _519  and  _522
REMARK  221  A    between atoms: _522  and  _523
REMARK  222  A    between atoms: _528  and  _530
REMARK  223  A    between atoms: _530  and  _531
REMARK  224  A    between atoms: _530  and  _533
REMARK  225  A    between atoms: _536  and  _538
REMARK  226  A    between atoms: _538  and  _539
REMARK  227  A    between atoms: _538  and  _541
REMARK  228  A    between atoms: _541  and  _542
REMARK  229  A    between atoms: _545  and  _547
REMARK  230  A    between atoms: _547  and  _548
REMARK  231  A    between atoms: _550  and  _552
REMARK  232  A    between atoms: _552  and  _553
REMARK  233  A    between atoms: _552  and  _555
REMARK  234  A    between atoms: _555  and  _556
REMARK  235  A    between atoms: _556  and  _557
REMARK  236  A    between atoms: _557  and  _558
REMARK                            x       y       z     vdW  Elec       q    Type
REMARK                         _______ _______ _______ _____ _____    ______ ____
ROOT
ATOM      1  C   ASN A   2      11.258  22.452  -4.407  0.00  0.00    +0.241 C 
ATOM      2  N   VAL A   3      12.368  21.871  -3.948  0.00  0.00    -0.297 N 
ATOM      3  H   VAL A   3      12.501  20.848  -4.078  0.00  0.00    +0.150 HD
ATOM      4  O   ASN A   2      11.036  23.653  -4.284  0.00  0.00    -0.273 OA
ENDROOT
BRANCH   2   5
ATOM      5  CA  VAL A   3      13.397  22.647  -3.268  0.00  0.00    +0.149 C 
BRANCH   5   6
ATOM      6  C   VAL A   3      14.738  22.408  -3.874  0.00  0.00    +0.241 C 
ATOM      7  O   VAL A   3      15.152  21.239  -4.087  0.00  0.00    -0.273 OA
ATOM      8  N   ILE A   4      15.449  23.507  -4.170  0.00  0.00    -0.297 N 
ATOM      9  H   ILE A   4      14.996  24.439  -4.080  0.00  0.00    +0.150 HD
BRANCH   8  10
ATOM     10  CA  ILE A   4      16.800  23.439  -4.602  0.00  0.00    +0.149 C 
BRANCH  10  11
ATOM     11  C   ILE A   4      17.720  23.676  -3.431  0.00  0.00    +0.241 C 
ATOM     12  O   ILE A   4      17.724  24.790  -2.822  0.00  0.00    -0.273 OA
ATOM     13  N   GLY A   5      18.489  22.674  -3.093  0.00  0.00    -0.295 N 
ATOM     14  H   GLY A   5      18.497  21.821  -3.688  0.00  0.00    +0.150 HD
BRANCH  13  15
ATOM     15  CA  GLY A   5      19.342  22.717  -1.897  0.00  0.00    +0.176 C 
BRANCH  15  16
ATOM     16  C   GLY A   5      20.836  23.048  -2.222  0.00  0.00    +0.243 C 
ATOM     17  N   ARG A   6      21.675  23.031  -1.201  0.00  0.00    -0.298 N 
ATOM     18  H   ARG A   6      21.371  22.614  -0.298  0.00  0.00    +0.150 HD
ATOM     19  O   GLY A   5      21.199  23.316  -3.395  0.00  0.00    -0.273 OA
BRANCH  17  20
ATOM     20  CA  ARG A   6      23.001  23.578  -1.315  0.00  0.00    +0.137 C 
BRANCH  20  21
ATOM     21  C   ARG A   6      23.858  22.778  -2.322  0.00  0.00    +0.227 C 
ATOM     22  O   ARG A   6      24.760  23.321  -2.927  0.00  0.00    -0.286 OA
ENDBRANCH  20  21
BRANCH  20  23
ATOM     23  CB  ARG A   6      23.693  23.619   0.054  0.00  0.00    +0.031 C 
BRANCH  23  24
ATOM     24  CG  ARG A   6      23.134  24.637   0.984  0.00  0.00    +0.045 C 
BRANCH  24  25
ATOM     25  CD  ARG A   6      23.976  24.756   2.276  0.00  0.00    +0.174 C 
BRANCH  25  26
ATOM     26  NE  ARG A   6      24.001  23.516   3.006  0.00  0.00    -0.265 N 
ATOM     27  HE  ARG A   6      23.165  23.274   3.575  0.00  0.00    +0.259 HD
ATOM     28  CZ  ARG A   6      25.049  22.629   3.005  0.00  0.00    +0.342 C 
ATOM     29  NH2 ARG A   6      24.965  21.532   3.698  0.00  0.00    -0.292 N 
ATOM     30 HH21 ARG A   6      24.107  21.330   4.250  0.00  0.00    +0.255 HD
ATOM     31 HH22 ARG A   6      25.756  20.857   3.701  0.00  0.00    +0.255 HD
ATOM     32  NH1 ARG A   6      26.157  22.878   2.296  0.00  0.00    -0.292 N 
ATOM     33 HH11 ARG A   6      26.943  22.198   2.304  0.00  0.00    +0.255 HD
ATOM     34 HH12 ARG A   6      26.231  23.752   1.737  0.00  0.00    +0.255 HD
ENDBRANCH  25  26
ENDBRANCH  24  25
ENDBRANCH  23  24
ENDBRANCH  20  23
ENDBRANCH  17  20
ENDBRANCH  15  16
ENDBRANCH  13  15
ENDBRANCH  10  11
BRANCH  10  35
ATOM     35  CB  ILE A   4      17.079  24.503  -5.708  0.00  0.00    +0.027 C 
ATOM     36  CG2 ILE A   4      18.514  24.425  -6.184  0.00  0.00    +0.002 C 
BRANCH  35  37
ATOM     37  CG1 ILE A   4      16.121  24.294  -6.882  0.00  0.00    +0.002 C 
ATOM     38  CD1 ILE A   4      15.597  25.533  -7.431  0.00  0.00    +0.000 C 
ENDBRANCH  35  37
ENDBRANCH  10  35
ENDBRANCH   8  10
ENDBRANCH   5   6
BRANCH   5  39
ATOM     39  CB  VAL A   3      13.459  22.323  -1.773  0.00  0.00    +0.027 C 
ATOM     40  CG2 VAL A   3      12.113  22.709  -1.071  0.00  0.00    +0.002 C 
ATOM     41  CG1 VAL A   3      13.754  20.986  -1.580  0.00  0.00    +0.002 C 
ENDBRANCH   5  39
ENDBRANCH   2   5
BRANCH   1  42
ATOM     42  CA  ASN A   2      10.253  21.544  -5.108  0.00  0.00    +0.158 C 
BRANCH  42  45
ATOM     43  C   THR A   1       8.660  21.492  -3.244  0.00  0.00    +0.243 C 
ATOM     44  O   THR A   1       9.444  20.867  -2.522  0.00  0.00    -0.273 OA
ATOM     45  N   ASN A   2       8.894  21.731  -4.521  0.00  0.00    -0.297 N 
ATOM     46  H   ASN A   2       8.116  22.056  -5.130  0.00  0.00    +0.150 HD
BRANCH  43  47
ATOM     47  CA  THR A   1       7.415  22.012  -2.704  0.00  0.00    +0.176 C 
BRANCH  47  49
ATOM     48  C   UNK A   0       5.755  21.051  -1.103  0.00  0.00    +0.237 C 
ATOM     49  N   THR A   1       7.024  21.207  -1.467  0.00  0.00    -0.295 N 
ATOM     50  H   THR A   1       7.772  20.768  -0.893  0.00  0.00    +0.150 HD
ATOM     51  O   UNK A   0       4.842  21.617  -1.648  0.00  0.00    -0.274 OA
BRANCH  48  56
ATOM     52  N   UNK A   0       6.499  18.976   0.267  0.00  0.00    -0.241 NA
ATOM     53  C   UNK A   0       7.100  18.983   1.583  0.00  0.00    +0.075 C 
ATOM     54  C   UNK A   0       6.767  20.346   2.117  0.00  0.00    +0.019 C 
ATOM     55  C   UNK A   0       5.540  20.831   1.444  0.00  0.00    +0.027 C 
ATOM     56  C   UNK A   0       5.471  20.071   0.103  0.00  0.00    +0.137 C 
BRANCH  52  57
ATOM     57  C   UNK A   0       6.753  18.095  -0.705  0.00  0.00    +0.234 C 
BRANCH  57  58
ATOM     58  O   UNK A   0       6.106  18.070  -1.771  0.00  0.00    -0.173 OA
ATOM     59  O   UNK A   0       4.512  18.327  -2.171  0.00  0.00    -0.033 OA
ENDBRANCH  57  58
BRANCH  57  60
ATOM     60  C   UNK A   0       7.878  17.104  -0.460  0.00  0.00    +0.142 C 
BRANCH  60  61
ATOM     61  C   UNK A   0       9.205  17.674  -1.064  0.00  0.00    +0.130 C 
ATOM     62  C   UNK A   0       9.153  17.654  -2.591  0.00  0.00    +0.033 C 
BRANCH  61  63
ATOM     63  O   UNK A   0       9.407  19.003  -0.613  0.00  0.00    -0.383 OA
ATOM     64  H   UNK A   0       8.647  19.567  -0.902  0.00  0.00    +0.210 HD
ENDBRANCH  61  63
ENDBRANCH  60  61
BRANCH  60  65
ATOM     65  N   UNK A   0       7.559  15.820  -1.037  0.00  0.00    -0.241 NA
ATOM     66  H   UNK A   0       7.768  15.652  -2.042  0.00  0.00    +0.142 HD
ENDBRANCH  60  65
ENDBRANCH  57  60
ENDBRANCH  52  57
ENDBRANCH  48  56
ENDBRANCH  47  49
BRANCH  47  67
ATOM     67  CB  THR A   1       7.644  23.509  -2.363  0.00  0.00    +0.137 C 
ATOM     68  CG2 THR A   1       6.420  24.173  -2.158  0.00  0.00    +0.034 C 
BRANCH  67  69
ATOM     69  OG1 THR A   1       8.472  23.615  -1.164  0.00  0.00    -0.382 OA
ATOM     70  HG1 THR A   1       8.617  24.570  -0.948  0.00  0.00    +0.210 HD
ENDBRANCH  67  69
ENDBRANCH  47  67
ENDBRANCH  43  47
ENDBRANCH  42  45
BRANCH  42  71
ATOM     71  CB  ASN A   2      10.243  21.858  -6.595  0.00  0.00    +0.114 C 
BRANCH  71  72
ATOM     72  CG  ASN A   2       9.359  20.905  -7.394  0.00  0.00    +0.222 C 
ATOM     73  OD1 ASN A   2       9.278  19.738  -7.100  0.00  0.00    -0.275 OA
ATOM     74  ND2 ASN A   2       8.701  21.430  -8.411  0.00  0.00    -0.329 N 
ATOM     75 HD21 ASN A   2       8.801  22.442  -8.628  0.00  0.00    +0.145 HD
ATOM     76 HD22 ASN A   2       8.083  20.831  -8.995  0.00  0.00    +0.145 HD
ENDBRANCH  71  72
ENDBRANCH  42  71
ENDBRANCH   1  42
TORSDOF 30
REMARK  Name = ../refined-set-2016/4cp7/4cp7_pocket.pdb
REMARK  236 active torsions:
REMARK  status: ('A' for Active; 'I' for Inactive)
REMARK    1  A    between atoms: _1  and  _3
REMARK    2  A    between atoms: _3  and  _4
REMARK    3  A    between atoms: _3  and  _6
REMARK    4  A    between atoms: _6  and  _7
REMARK    5  A    between atoms: _7  and  _8
REMARK    6  A    between atoms: _8  and  _9
REMARK    7  A    between atoms: _18  and  _20
REMARK    8  A    between atoms: _20  and  _21
REMARK    9  A    between atoms: _20  and  _23
REMARK   10  A    between atoms: _23  and  _24
REMARK   11  A    between atoms: _27  and  _29
REMARK   12  A    between atoms: _29  and  _30
REMARK   13  A    between atoms: _29  and  _32
REMARK   14  A    between atoms: _32  and  _33
REMARK   15  A    between atoms: _36  and  _38
REMARK   16  A    between atoms: _38  and  _39
REMARK   17  A    between atoms: _38  and  _41
REMARK   18  A    between atoms: _41  and  _42
REMARK   19  A    between atoms: _45  and  _47
REMARK   20  A    between atoms: _47  and  _48
REMARK   21  A    between atoms: _47  and  _50
REMARK   22  A    between atoms: _50  and  _51
REMARK   23  A    between atoms: _54  and  _56
REMARK   24  A    between atoms: _56  and  _57
REMARK   25  A    between atoms: _59  and  _61
REMARK   26  A    between atoms: _61  and  _62
REMARK   27  A    between atoms: _65  and  _67
REMARK   28  A    between atoms: _67  and  _68
REMARK   29  A    between atoms: _67  and  _70
REMARK   30  A    between atoms: _70  and  _71
REMARK   31  A    between atoms: _74  and  _76
REMARK   32  A    between atoms: _76  and  _77
REMARK   33  A    between atoms: _76  and  _79
REMARK   34  A    between atoms: _79  and  _80
REMARK   35  A    between atoms: _83  and  _85
REMARK   36  A    between atoms: _85  and  _86
REMARK   37  A    between atoms: _85  and  _88
REMARK   38  A    between atoms: _88  and  _89
REMARK   39  A    between atoms: _92  and  _94
REMARK   40  A    between atoms: _94  and  _95
REMARK   41  A    between atoms: _94  and  _97
REMARK   42  A    between atoms: _100  and  _102
REMARK   43  A    between atoms: _102  and  _103
REMARK   44  A    between atoms: _102  and  _105
REMARK   45  A    between atoms: _105  and  _106
REMARK   46  A    between atoms: _106  and  _107
REMARK   47  A    between atoms: _107  and  _108
REMARK   48  A    between atoms: _108  and  _109
REMARK   49  A    between atoms: _113  and  _115
REMARK   50  A    between atoms: _115  and  _116
REMARK   51  A    between atoms: _115  and  _118
REMARK   52  A    between atoms: _118  and  _119
REMARK   53  A    between atoms: _119  and  _120
REMARK   54  A    between atoms: _122  and  _124
REMARK   55  A    between atoms: _124  and  _125
REMARK   56  A    between atoms: _124  and  _127
REMARK   57  A    between atoms: _127  and  _128
REMARK   58  A    between atoms: _131  and  _133
REMARK   59  A    between atoms: _133  and  _134
REMARK   60  A    between atoms: _136  and  _138
REMARK   61  A    between atoms: _138  and  _139
REMARK   62  A    between atoms: _141  and  _143
REMARK   63  A    between atoms: _143  and  _144
REMARK   64  A    between atoms: _143  and  _146
REMARK   65  A    between atoms: _146  and  _147
REMARK   66  A    between atoms: _150  and  _152
REMARK   67  A    between atoms: _152  and  _153
REMARK   68  A    between atoms: _155  and  _157
REMARK   69  A    between atoms: _157  and  _158
REMARK   70  A    between atoms: _160  and  _162
REMARK   71  A    between atoms: _162  and  _163
REMARK   72  A    between atoms: _162  and  _165
REMARK   73  A    between atoms: _165  and  _166
REMARK   74  A    between atoms: _172  and  _174
REMARK   75  A    between atoms: _174  and  _175
REMARK   76  A    between atoms: _174  and  _177
REMARK   77  A    between atoms: _177  and  _178
REMARK   78  A    between atoms: _181  and  _183
REMARK   79  A    between atoms: _183  and  _184
REMARK   80  A    between atoms: _183  and  _186
REMARK   81  A    between atoms: _186  and  _187
REMARK   82  A    between atoms: _190  and  _192
REMARK   83  A    between atoms: _192  and  _193
REMARK   84  A    between atoms: _192  and  _195
REMARK   85  A    between atoms: _195  and  _196
REMARK   86  A    between atoms: _200  and  _201
REMARK   87  A    between atoms: _206  and  _208
REMARK   88  A    between atoms: _208  and  _209
REMARK   89  A    between atoms: _208  and  _211
REMARK   90  A    between atoms: _211  and  _212
REMARK   91  A    between atoms: _215  and  _217
REMARK   92  A    between atoms: _217  and  _218
REMARK   93  A    between atoms: _217  and  _220
REMARK   94  A    between atoms: _220  and  _221
REMARK   95  A    between atoms: _226  and  _228
REMARK   96  A    between atoms: _228  and  _229
REMARK   97  A    between atoms: _228  and  _231
REMARK   98  A    between atoms: _234  and  _236
REMARK   99  A    between atoms: _236  and  _237
REMARK  100  A    between atoms: _236  and  _239
REMARK  101  A    between atoms: _239  and  _240
REMARK  102  A    between atoms: _243  and  _245
REMARK  103  A    between atoms: _245  and  _246
REMARK  104  A    between atoms: _248  and  _250
REMARK  105  A    between atoms: _250  and  _251
REMARK  106  A    between atoms: _250  and  _253
REMARK  107  A    between atoms: _253  and  _254
REMARK  108  A    between atoms: _254  and  _255
REMARK  109  A    between atoms: _255  and  _256
REMARK  110  A    between atoms: _265  and  _267
REMARK  111  A    between atoms: _267  and  _268
REMARK  112  A    between atoms: _267  and  _270
REMARK  113  A    between atoms: _270  and  _271
REMARK  114  A    between atoms: _276  and  _278
REMARK  115  A    between atoms: _278  and  _279
REMARK  116  A    between atoms: _278  and  _281
REMARK  117  A    between atoms: _281  and  _282
REMARK  118  A    between atoms: _282  and  _283
REMARK  119  A    between atoms: _283  and  _284
REMARK  120  A    between atoms: _293  and  _295
REMARK  121  A    between atoms: _295  and  _296
REMARK  122  A    between atoms: _295  and  _298
REMARK  123  A    between atoms: _298  and  _299
REMARK  124  A    between atoms: _302  and  _304
REMARK  125  A    between atoms: _304  and  _305
REMARK  126  A    between atoms: _304  and  _307
REMARK  127  A    between atoms: _307  and  _308
REMARK  128  A    between atoms: _311  and  _313
REMARK  129  A    between atoms: _313  and  _314
REMARK  130  A    between atoms: _313  and  _316
REMARK  131  A    between atoms: _316  and  _317
REMARK  132  A    between atoms: _320  and  _322
REMARK  133  A    between atoms: _322  and  _323
REMARK  134  A    between atoms: _322  and  _325
REMARK  135  A    between atoms: _325  and  _326
REMARK  136  A    between atoms: _329  and  _331
REMARK  137  A    between atoms: _331  and  _332
REMARK  138  A    between atoms: _331  and  _334
REMARK  139  A    between atoms: _334  and  _335
REMARK  140  A    between atoms: _338  and  _340
REMARK  141  A    between atoms: _340  and  _341
REMARK  142  A    between atoms: _343  and  _345
REMARK  143  A    between atoms: _345  and  _346
REMARK  144  A    between atoms: _349  and  _351
REMARK  145  A    between atoms: _351  and  _352
REMARK  146  A    between atoms: _351  and  _354
REMARK  147  A    between atoms: _354  and  _355
REMARK  148  A    between atoms: _358  and  _360
REMARK  149  A    between atoms: _360  and  _361
REMARK  150  A    between atoms: _360  and  _363
REMARK  151  A    between atoms: _363  and  _364
REMARK  152  A    between atoms: _367  and  _369
REMARK  153  A    between atoms: _369  and  _370
REMARK  154  A    between atoms: _369  and  _372
REMARK  155  A    between atoms: _372  and  _373
REMARK  156  A    between atoms: _376  and  _378
REMARK  157  A    between atoms: _378  and  _379
REMARK  158  A    between atoms: _378  and  _381
REMARK  159  A    between atoms: _384  and  _386
REMARK  160  A    between atoms: _386  and  _387
REMARK  161  A    between atoms: _386  and  _389
REMARK  162  A    between atoms: _389  and  _390
REMARK  163  A    between atoms: _390  and  _391
REMARK  164  A    between atoms: _394  and  _396
REMARK  165  A    between atoms: _396  and  _397
REMARK  166  A    between atoms: _396  and  _399
REMARK  167  A    between atoms: _399  and  _400
REMARK  168  A    between atoms: _400  and  _401
REMARK  169  A    between atoms: _401  and  _402
REMARK  170  A    between atoms: _402  and  _403
REMARK  171  A    between atoms: _407  and  _409
REMARK  172  A    between atoms: _409  and  _410
REMARK  173  A    between atoms: _409  and  _412
REMARK  174  A    between atoms: _412  and  _413
REMARK  175  A    between atoms: _413  and  _414
REMARK  176  A    between atoms: _416  and  _418
REMARK  177  A    between atoms: _418  and  _419
REMARK  178  A    between atoms: _418  and  _421
REMARK  179  A    between atoms: _421  and  _422
REMARK  180  A    between atoms: _425  and  _427
REMARK  181  A    between atoms: _427  and  _428
REMARK  182  A    between atoms: _430  and  _432
REMARK  183  A    between atoms: _432  and  _433
REMARK  184  A    between atoms: _435  and  _437
REMARK  185  A    between atoms: _437  and  _438
REMARK  186  A    between atoms: _437  and  _440
REMARK  187  A    between atoms: _440  and  _441
REMARK  188  A    between atoms: _444  and  _446
REMARK  189  A    between atoms: _446  and  _447
REMARK  190  A    between atoms: _449  and  _451
REMARK  191  A    between atoms: _451  and  _452
REMARK  192  A    between atoms: _454  and  _456
REMARK  193  A    between atoms: _456  and  _457
REMARK  194  A    between atoms: _456  and  _459
REMARK  195  A    between atoms: _459  and  _460
REMARK  196  A    between atoms: _466  and  _468
REMARK  197  A    between atoms: _468  and  _469
REMARK  198  A    between atoms: _468  and  _471
REMARK  199  A    between atoms: _471  and  _472
REMARK  200  A    between atoms: _475  and  _477
REMARK  201  A    between atoms: _477  and  _478
REMARK  202  A    between atoms: _477  and  _480
REMARK  203  A    between atoms: _483  and  _485
REMARK  204  A    between atoms: _485  and  _486
REMARK  205  A    between atoms: _485  and  _488
REMARK  206  A    between atoms: _488  and  _489
REMARK  207  A    between atoms: _492  and  _494
REMARK  208  A    between atoms: _494  and  _495
REMARK  209  A    between atoms: _494  and  _497
REMARK  210  A    between atoms: _495  and  _496
REMARK  211  A    between atoms: _495  and  _501
REMARK  212  A    between atoms: _497  and  _498
REMARK  213  A    between atoms: _502  and  _503
REMARK  214  A    between atoms: _508  and  _510
REMARK  215  A    between atoms: _510  and  _511
REMARK  216  A    between atoms: _510  and  _513
REMARK  217  A    between atoms: _513  and  _514
REMARK  218  A    between atoms: _517  and  _519
REMARK  219  A    between atoms: _519  and  _520
REMARK  220  A    between atoms: _519  and  _522
REMARK  221  A    between atoms: _522  and  _523
REMARK  222  A    between atoms: _528  and  _530
REMARK  223  A    between atoms: _530  and  _531
REMARK  224  A    between atoms: _530  and  _533
REMARK  225  A    between atoms: _536  and  _538
REMARK  226  A    between atoms: _538  and  _539
REMARK  227  A    between atoms: _538  and  _541
REMARK  228  A    between atoms: _541  and  _542
REMARK  229  A    between atoms: _545  and  _547
REMARK  230  A    between atoms: _547  and  _548
REMARK  231  A    between atoms: _550  and  _552
REMARK  232  A    between atoms: _552  and  _553
REMARK  233  A    between atoms: _552  and  _555
REMARK  234  A    between atoms: _555  and  _556
REMARK  235  A    between atoms: _556  and  _557
REMARK  236  A    between atoms: _557  and  _558
REMARK                            x       y       z     vdW  Elec       q    Type
REMARK                         _______ _______ _______ _____ _____    ______ ____
ROOT
ATOM      1  O   HOH     1      11.424  21.124   6.508  0.00  0.00    +0.000 OA
ENDROOT
TORSDOF 0
REMARK  Name = ../refined-set-2016/4cp7/4cp7_pocket.pdb
REMARK  236 active torsions:
REMARK  status: ('A' for Active; 'I' for Inactive)
REMARK    1  A    between atoms: _1  and  _3
REMARK    2  A    between atoms: _3  and  _4
REMARK    3  A    between atoms: _3  and  _6
REMARK    4  A    between atoms: _6  and  _7
REMARK    5  A    between atoms: _7  and  _8
REMARK    6  A    between atoms: _8  and  _9
REMARK    7  A    between atoms: _18  and  _20
REMARK    8  A    between atoms: _20  and  _21
REMARK    9  A    between atoms: _20  and  _23
REMARK   10  A    between atoms: _23  and  _24
REMARK   11  A    between atoms: _27  and  _29
REMARK   12  A    between atoms: _29  and  _30
REMARK   13  A    between atoms: _29  and  _32
REMARK   14  A    between atoms: _32  and  _33
REMARK   15  A    between atoms: _36  and  _38
REMARK   16  A    between atoms: _38  and  _39
REMARK   17  A    between atoms: _38  and  _41
REMARK   18  A    between atoms: _41  and  _42
REMARK   19  A    between atoms: _45  and  _47
REMARK   20  A    between atoms: _47  and  _48
REMARK   21  A    between atoms: _47  and  _50
REMARK   22  A    between atoms: _50  and  _51
REMARK   23  A    between atoms: _54  and  _56
REMARK   24  A    between atoms: _56  and  _57
REMARK   25  A    between atoms: _59  and  _61
REMARK   26  A    between atoms: _61  and  _62
REMARK   27  A    between atoms: _65  and  _67
REMARK   28  A    between atoms: _67  and  _68
REMARK   29  A    between atoms: _67  and  _70
REMARK   30  A    between atoms: _70  and  _71
REMARK   31  A    between atoms: _74  and  _76
REMARK   32  A    between atoms: _76  and  _77
REMARK   33  A    between atoms: _76  and  _79
REMARK   34  A    between atoms: _79  and  _80
REMARK   35  A    between atoms: _83  and  _85
REMARK   36  A    between atoms: _85  and  _86
REMARK   37  A    between atoms: _85  and  _88
REMARK   38  A    between atoms: _88  and  _89
REMARK   39  A    between atoms: _92  and  _94
REMARK   40  A    between atoms: _94  and  _95
REMARK   41  A    between atoms: _94  and  _97
REMARK   42  A    between atoms: _100  and  _102
REMARK   43  A    between atoms: _102  and  _103
REMARK   44  A    between atoms: _102  and  _105
REMARK   45  A    between atoms: _105  and  _106
REMARK   46  A    between atoms: _106  and  _107
REMARK   47  A    between atoms: _107  and  _108
REMARK   48  A    between atoms: _108  and  _109
REMARK   49  A    between atoms: _113  and  _115
REMARK   50  A    between atoms: _115  and  _116
REMARK   51  A    between atoms: _115  and  _118
REMARK   52  A    between atoms: _118  and  _119
REMARK   53  A    between atoms: _119  and  _120
REMARK   54  A    between atoms: _122  and  _124
REMARK   55  A    between atoms: _124  and  _125
REMARK   56  A    between atoms: _124  and  _127
REMARK   57  A    between atoms: _127  and  _128
REMARK   58  A    between atoms: _131  and  _133
REMARK   59  A    between atoms: _133  and  _134
REMARK   60  A    between atoms: _136  and  _138
REMARK   61  A    between atoms: _138  and  _139
REMARK   62  A    between atoms: _141  and  _143
REMARK   63  A    between atoms: _143  and  _144
REMARK   64  A    between atoms: _143  and  _146
REMARK   65  A    between atoms: _146  and  _147
REMARK   66  A    between atoms: _150  and  _152
REMARK   67  A    between atoms: _152  and  _153
REMARK   68  A    between atoms: _155  and  _157
REMARK   69  A    between atoms: _157  and  _158
REMARK   70  A    between atoms: _160  and  _162
REMARK   71  A    between atoms: _162  and  _163
REMARK   72  A    between atoms: _162  and  _165
REMARK   73  A    between atoms: _165  and  _166
REMARK   74  A    between atoms: _172  and  _174
REMARK   75  A    between atoms: _174  and  _175
REMARK   76  A    between atoms: _174  and  _177
REMARK   77  A    between atoms: _177  and  _178
REMARK   78  A    between atoms: _181  and  _183
REMARK   79  A    between atoms: _183  and  _184
REMARK   80  A    between atoms: _183  and  _186
REMARK   81  A    between atoms: _186  and  _187
REMARK   82  A    between atoms: _190  and  _192
REMARK   83  A    between atoms: _192  and  _193
REMARK   84  A    between atoms: _192  and  _195
REMARK   85  A    between atoms: _195  and  _196
REMARK   86  A    between atoms: _200  and  _201
REMARK   87  A    between atoms: _206  and  _208
REMARK   88  A    between atoms: _208  and  _209
REMARK   89  A    between atoms: _208  and  _211
REMARK   90  A    between atoms: _211  and  _212
REMARK   91  A    between atoms: _215  and  _217
REMARK   92  A    between atoms: _217  and  _218
REMARK   93  A    between atoms: _217  and  _220
REMARK   94  A    between atoms: _220  and  _221
REMARK   95  A    between atoms: _226  and  _228
REMARK   96  A    between atoms: _228  and  _229
REMARK   97  A    between atoms: _228  and  _231
REMARK   98  A    between atoms: _234  and  _236
REMARK   99  A    between atoms: _236  and  _237
REMARK  100  A    between atoms: _236  and  _239
REMARK  101  A    between atoms: _239  and  _240
REMARK  102  A    between atoms: _243  and  _245
REMARK  103  A    between atoms: _245  and  _246
REMARK  104  A    between atoms: _248  and  _250
REMARK  105  A    between atoms: _250  and  _251
REMARK  106  A    between atoms: _250  and  _253
REMARK  107  A    between atoms: _253  and  _254
REMARK  108  A    between atoms: _254  and  _255
REMARK  109  A    between atoms: _255  and  _256
REMARK  110  A    between atoms: _265  and  _267
REMARK  111  A    between atoms: _267  and  _268
REMARK  112  A    between atoms: _267  and  _270
REMARK  113  A    between atoms: _270  and  _271
REMARK  114  A    between atoms: _276  and  _278
REMARK  115  A    between atoms: _278  and  _279
REMARK  116  A    between atoms: _278  and  _281
REMARK  117  A    between atoms: _281  and  _282
REMARK  118  A    between atoms: _282  and  _283
REMARK  119  A    between atoms: _283  and  _284
REMARK  120  A    between atoms: _293  and  _295
REMARK  121  A    between atoms: _295  and  _296
REMARK  122  A    between atoms: _295  and  _298
REMARK  123  A    between atoms: _298  and  _299
REMARK  124  A    between atoms: _302  and  _304
REMARK  125  A    between atoms: _304  and  _305
REMARK  126  A    between atoms: _304  and  _307
REMARK  127  A    between atoms: _307  and  _308
REMARK  128  A    between atoms: _311  and  _313
REMARK  129  A    between atoms: _313  and  _314
REMARK  130  A    between atoms: _313  and  _316
REMARK  131  A    between atoms: _316  and  _317
REMARK  132  A    between atoms: _320  and  _322
REMARK  133  A    between atoms: _322  and  _323
REMARK  134  A    between atoms: _322  and  _325
REMARK  135  A    between atoms: _325  and  _326
REMARK  136  A    between atoms: _329  and  _331
REMARK  137  A    between atoms: _331  and  _332
REMARK  138  A    between atoms: _331  and  _334
REMARK  139  A    between atoms: _334  and  _335
REMARK  140  A    between atoms: _338  and  _340
REMARK  141  A    between atoms: _340  and  _341
REMARK  142  A    between atoms: _343  and  _345
REMARK  143  A    between atoms: _345  and  _346
REMARK  144  A    between atoms: _349  and  _351
REMARK  145  A    between atoms: _351  and  _352
REMARK  146  A    between atoms: _351  and  _354
REMARK  147  A    between atoms: _354  and  _355
REMARK  148  A    between atoms: _358  and  _360
REMARK  149  A    between atoms: _360  and  _361
REMARK  150  A    between atoms: _360  and  _363
REMARK  151  A    between atoms: _363  and  _364
REMARK  152  A    between atoms: _367  and  _369
REMARK  153  A    between atoms: _369  and  _370
REMARK  154  A    between atoms: _369  and  _372
REMARK  155  A    between atoms: _372  and  _373
REMARK  156  A    between atoms: _376  and  _378
REMARK  157  A    between atoms: _378  and  _379
REMARK  158  A    between atoms: _378  and  _381
REMARK  159  A    between atoms: _384  and  _386
REMARK  160  A    between atoms: _386  and  _387
REMARK  161  A    between atoms: _386  and  _389
REMARK  162  A    between atoms: _389  and  _390
REMARK  163  A    between atoms: _390  and  _391
REMARK  164  A    between atoms: _394  and  _396
REMARK  165  A    between atoms: _396  and  _397
REMARK  166  A    between atoms: _396  and  _399
REMARK  167  A    between atoms: _399  and  _400
REMARK  168  A    between atoms: _400  and  _401
REMARK  169  A    between atoms: _401  and  _402
REMARK  170  A    between atoms: _402  and  _403
REMARK  171  A    between atoms: _407  and  _409
REMARK  172  A    between atoms: _409  and  _410
REMARK  173  A    between atoms: _409  and  _412
REMARK  174  A    between atoms: _412  and  _413
REMARK  175  A    between atoms: _413  and  _414
REMARK  176  A    between atoms: _416  and  _418
REMARK  177  A    between atoms: _418  and  _419
REMARK  178  A    between atoms: _418  and  _421
REMARK  179  A    between atoms: _421  and  _422
REMARK  180  A    between atoms: _425  and  _427
REMARK  181  A    between atoms: _427  and  _428
REMARK  182  A    between atoms: _430  and  _432
REMARK  183  A    between atoms: _432  and  _433
REMARK  184  A    between atoms: _435  and  _437
REMARK  185  A    between atoms: _437  and  _438
REMARK  186  A    between atoms: _437  and  _440
REMARK  187  A    between atoms: _440  and  _441
REMARK  188  A    between atoms: _444  and  _446
REMARK  189  A    between atoms: _446  and  _447
REMARK  190  A    between atoms: _449  and  _451
REMARK  191  A    between atoms: _451  and  _452
REMARK  192  A    between atoms: _454  and  _456
REMARK  193  A    between atoms: _456  and  _457
REMARK  194  A    between atoms: _456  and  _459
REMARK  195  A    between atoms: _459  and  _460
REMARK  196  A    between atoms: _466  and  _468
REMARK  197  A    between atoms: _468  and  _469
REMARK  198  A    between atoms: _468  and  _471
REMARK  199  A    between atoms: _471  and  _472
REMARK  200  A    between atoms: _475  and  _477
REMARK  201  A    between atoms: _477  and  _478
REMARK  202  A    between atoms: _477  and  _480
REMARK  203  A    between atoms: _483  and  _485
REMARK  204  A    between atoms: _485  and  _486
REMARK  205  A    between atoms: _485  and  _488
REMARK  206  A    between atoms: _488  and  _489
REMARK  207  A    between atoms: _492  and  _494
REMARK  208  A    between atoms: _494  and  _495
REMARK  209  A    between atoms: _494  and  _497
REMARK  210  A    between atoms: _495  and  _496
REMARK  211  A    between atoms: _495  and  _501
REMARK  212  A    between atoms: _497  and  _498
REMARK  213  A    between atoms: _502  and  _503
REMARK  214  A    between atoms: _508  and  _510
REMARK  215  A    between atoms: _510  and  _511
REMARK  216  A    between atoms: _510  and  _513
REMARK  217  A    between atoms: _513  and  _514
REMARK  218  A    between atoms: _517  and  _519
REMARK  219  A    between atoms: _519  and  _520
REMARK  220  A    between atoms: _519  and  _522
REMARK  221  A    between atoms: _522  and  _523
REMARK  222  A    between atoms: _528  and  _530
REMARK  223  A    between atoms: _530  and  _531
REMARK  224  A    between atoms: _530  and  _533
REMARK  225  A    between atoms: _536  and  _538
REMARK  226  A    between atoms: _538  and  _539
REMARK  227  A    between atoms: _538  and  _541
REMARK  228  A    between atoms: _541  and  _542
REMARK  229  A    between atoms: _545  and  _547
REMARK  230  A    between atoms: _547  and  _548
REMARK  231  A    between atoms: _550  and  _552
REMARK  232  A    between atoms: _552  and  _553
REMARK  233  A    between atoms: _552  and  _555
REMARK  234  A    between atoms: _555  and  _556
REMARK  235  A    between atoms: _556  and  _557
REMARK  236  A    between atoms: _557  and  _558
REMARK                            x       y       z     vdW  Elec       q    Type
REMARK                         _______ _______ _______ _____ _____    ______ ____
ROOT
ATOM      1  O   HOH     1      20.724  21.420   9.047  0.00  0.00    +0.000 OA
ENDROOT
TORSDOF 0
REMARK  Name = ../refined-set-2016/4cp7/4cp7_pocket.pdb
REMARK  236 active torsions:
REMARK  status: ('A' for Active; 'I' for Inactive)
REMARK    1  A    between atoms: _1  and  _3
REMARK    2  A    between atoms: _3  and  _4
REMARK    3  A    between atoms: _3  and  _6
REMARK    4  A    between atoms: _6  and  _7
REMARK    5  A    between atoms: _7  and  _8
REMARK    6  A    between atoms: _8  and  _9
REMARK    7  A    between atoms: _18  and  _20
REMARK    8  A    between atoms: _20  and  _21
REMARK    9  A    between atoms: _20  and  _23
REMARK   10  A    between atoms: _23  and  _24
REMARK   11  A    between atoms: _27  and  _29
REMARK   12  A    between atoms: _29  and  _30
REMARK   13  A    between atoms: _29  and  _32
REMARK   14  A    between atoms: _32  and  _33
REMARK   15  A    between atoms: _36  and  _38
REMARK   16  A    between atoms: _38  and  _39
REMARK   17  A    between atoms: _38  and  _41
REMARK   18  A    between atoms: _41  and  _42
REMARK   19  A    between atoms: _45  and  _47
REMARK   20  A    between atoms: _47  and  _48
REMARK   21  A    between atoms: _47  and  _50
REMARK   22  A    between atoms: _50  and  _51
REMARK   23  A    between atoms: _54  and  _56
REMARK   24  A    between atoms: _56  and  _57
REMARK   25  A    between atoms: _59  and  _61
REMARK   26  A    between atoms: _61  and  _62
REMARK   27  A    between atoms: _65  and  _67
REMARK   28  A    between atoms: _67  and  _68
REMARK   29  A    between atoms: _67  and  _70
REMARK   30  A    between atoms: _70  and  _71
REMARK   31  A    between atoms: _74  and  _76
REMARK   32  A    between atoms: _76  and  _77
REMARK   33  A    between atoms: _76  and  _79
REMARK   34  A    between atoms: _79  and  _80
REMARK   35  A    between atoms: _83  and  _85
REMARK   36  A    between atoms: _85  and  _86
REMARK   37  A    between atoms: _85  and  _88
REMARK   38  A    between atoms: _88  and  _89
REMARK   39  A    between atoms: _92  and  _94
REMARK   40  A    between atoms: _94  and  _95
REMARK   41  A    between atoms: _94  and  _97
REMARK   42  A    between atoms: _100  and  _102
REMARK   43  A    between atoms: _102  and  _103
REMARK   44  A    between atoms: _102  and  _105
REMARK   45  A    between atoms: _105  and  _106
REMARK   46  A    between atoms: _106  and  _107
REMARK   47  A    between atoms: _107  and  _108
REMARK   48  A    between atoms: _108  and  _109
REMARK   49  A    between atoms: _113  and  _115
REMARK   50  A    between atoms: _115  and  _116
REMARK   51  A    between atoms: _115  and  _118
REMARK   52  A    between atoms: _118  and  _119
REMARK   53  A    between atoms: _119  and  _120
REMARK   54  A    between atoms: _122  and  _124
REMARK   55  A    between atoms: _124  and  _125
REMARK   56  A    between atoms: _124  and  _127
REMARK   57  A    between atoms: _127  and  _128
REMARK   58  A    between atoms: _131  and  _133
REMARK   59  A    between atoms: _133  and  _134
REMARK   60  A    between atoms: _136  and  _138
REMARK   61  A    between atoms: _138  and  _139
REMARK   62  A    between atoms: _141  and  _143
REMARK   63  A    between atoms: _143  and  _144
REMARK   64  A    between atoms: _143  and  _146
REMARK   65  A    between atoms: _146  and  _147
REMARK   66  A    between atoms: _150  and  _152
REMARK   67  A    between atoms: _152  and  _153
REMARK   68  A    between atoms: _155  and  _157
REMARK   69  A    between atoms: _157  and  _158
REMARK   70  A    between atoms: _160  and  _162
REMARK   71  A    between atoms: _162  and  _163
REMARK   72  A    between atoms: _162  and  _165
REMARK   73  A    between atoms: _165  and  _166
REMARK   74  A    between atoms: _172  and  _174
REMARK   75  A    between atoms: _174  and  _175
REMARK   76  A    between atoms: _174  and  _177
REMARK   77  A    between atoms: _177  and  _178
REMARK   78  A    between atoms: _181  and  _183
REMARK   79  A    between atoms: _183  and  _184
REMARK   80  A    between atoms: _183  and  _186
REMARK   81  A    between atoms: _186  and  _187
REMARK   82  A    between atoms: _190  and  _192
REMARK   83  A    between atoms: _192  and  _193
REMARK   84  A    between atoms: _192  and  _195
REMARK   85  A    between atoms: _195  and  _196
REMARK   86  A    between atoms: _200  and  _201
REMARK   87  A    between atoms: _206  and  _208
REMARK   88  A    between atoms: _208  and  _209
REMARK   89  A    between atoms: _208  and  _211
REMARK   90  A    between atoms: _211  and  _212
REMARK   91  A    between atoms: _215  and  _217
REMARK   92  A    between atoms: _217  and  _218
REMARK   93  A    between atoms: _217  and  _220
REMARK   94  A    between atoms: _220  and  _221
REMARK   95  A    between atoms: _226  and  _228
REMARK   96  A    between atoms: _228  and  _229
REMARK   97  A    between atoms: _228  and  _231
REMARK   98  A    between atoms: _234  and  _236
REMARK   99  A    between atoms: _236  and  _237
REMARK  100  A    between atoms: _236  and  _239
REMARK  101  A    between atoms: _239  and  _240
REMARK  102  A    between atoms: _243  and  _245
REMARK  103  A    between atoms: _245  and  _246
REMARK  104  A    between atoms: _248  and  _250
REMARK  105  A    between atoms: _250  and  _251
REMARK  106  A    between atoms: _250  and  _253
REMARK  107  A    between atoms: _253  and  _254
REMARK  108  A    between atoms: _254  and  _255
REMARK  109  A    between atoms: _255  and  _256
REMARK  110  A    between atoms: _265  and  _267
REMARK  111  A    between atoms: _267  and  _268
REMARK  112  A    between atoms: _267  and  _270
REMARK  113  A    between atoms: _270  and  _271
REMARK  114  A    between atoms: _276  and  _278
REMARK  115  A    between atoms: _278  and  _279
REMARK  116  A    between atoms: _278  and  _281
REMARK  117  A    between atoms: _281  and  _282
REMARK  118  A    between atoms: _282  and  _283
REMARK  119  A    between atoms: _283  and  _284
REMARK  120  A    between atoms: _293  and  _295
REMARK  121  A    between atoms: _295  and  _296
REMARK  122  A    between atoms: _295  and  _298
REMARK  123  A    between atoms: _298  and  _299
REMARK  124  A    between atoms: _302  and  _304
REMARK  125  A    between atoms: _304  and  _305
REMARK  126  A    between atoms: _304  and  _307
REMARK  127  A    between atoms: _307  and  _308
REMARK  128  A    between atoms: _311  and  _313
REMARK  129  A    between atoms: _313  and  _314
REMARK  130  A    between atoms: _313  and  _316
REMARK  131  A    between atoms: _316  and  _317
REMARK  132  A    between atoms: _320  and  _322
REMARK  133  A    between atoms: _322  and  _323
REMARK  134  A    between atoms: _322  and  _325
REMARK  135  A    between atoms: _325  and  _326
REMARK  136  A    between atoms: _329  and  _331
REMARK  137  A    between atoms: _331  and  _332
REMARK  138  A    between atoms: _331  and  _334
REMARK  139  A    between atoms: _334  and  _335
REMARK  140  A    between atoms: _338  and  _340
REMARK  141  A    between atoms: _340  and  _341
REMARK  142  A    between atoms: _343  and  _345
REMARK  143  A    between atoms: _345  and  _346
REMARK  144  A    between atoms: _349  and  _351
REMARK  145  A    between atoms: _351  and  _352
REMARK  146  A    between atoms: _351  and  _354
REMARK  147  A    between atoms: _354  and  _355
REMARK  148  A    between atoms: _358  and  _360
REMARK  149  A    between atoms: _360  and  _361
REMARK  150  A    between atoms: _360  and  _363
REMARK  151  A    between atoms: _363  and  _364
REMARK  152  A    between atoms: _367  and  _369
REMARK  153  A    between atoms: _369  and  _370
REMARK  154  A    between atoms: _369  and  _372
REMARK  155  A    between atoms: _372  and  _373
REMARK  156  A    between atoms: _376  and  _378
REMARK  157  A    between atoms: _378  and  _379
REMARK  158  A    between atoms: _378  and  _381
REMARK  159  A    between atoms: _384  and  _386
REMARK  160  A    between atoms: _386  and  _387
REMARK  161  A    between atoms: _386  and  _389
REMARK  162  A    between atoms: _389  and  _390
REMARK  163  A    between atoms: _390  and  _391
REMARK  164  A    between atoms: _394  and  _396
REMARK  165  A    between atoms: _396  and  _397
REMARK  166  A    between atoms: _396  and  _399
REMARK  167  A    between atoms: _399  and  _400
REMARK  168  A    between atoms: _400  and  _401
REMARK  169  A    between atoms: _401  and  _402
REMARK  170  A    between atoms: _402  and  _403
REMARK  171  A    between atoms: _407  and  _409
REMARK  172  A    between atoms: _409  and  _410
REMARK  173  A    between atoms: _409  and  _412
REMARK  174  A    between atoms: _412  and  _413
REMARK  175  A    between atoms: _413  and  _414
REMARK  176  A    between atoms: _416  and  _418
REMARK  177  A    between atoms: _418  and  _419
REMARK  178  A    between atoms: _418  and  _421
REMARK  179  A    between atoms: _421  and  _422
REMARK  180  A    between atoms: _425  and  _427
REMARK  181  A    between atoms: _427  and  _428
REMARK  182  A    between atoms: _430  and  _432
REMARK  183  A    between atoms: _432  and  _433
REMARK  184  A    between atoms: _435  and  _437
REMARK  185  A    between atoms: _437  and  _438
REMARK  186  A    between atoms: _437  and  _440
REMARK  187  A    between atoms: _440  and  _441
REMARK  188  A    between atoms: _444  and  _446
REMARK  189  A    between atoms: _446  and  _447
REMARK  190  A    between atoms: _449  and  _451
REMARK  191  A    between atoms: _451  and  _452
REMARK  192  A    between atoms: _454  and  _456
REMARK  193  A    between atoms: _456  and  _457
REMARK  194  A    between atoms: _456  and  _459
REMARK  195  A    between atoms: _459  and  _460
REMARK  196  A    between atoms: _466  and  _468
REMARK  197  A    between atoms: _468  and  _469
REMARK  198  A    between atoms: _468  and  _471
REMARK  199  A    between atoms: _471  and  _472
REMARK  200  A    between atoms: _475  and  _477
REMARK  201  A    between atoms: _477  and  _478
REMARK  202  A    between atoms: _477  and  _480
REMARK  203  A    between atoms: _483  and  _485
REMARK  204  A    between atoms: _485  and  _486
REMARK  205  A    between atoms: _485  and  _488
REMARK  206  A    between atoms: _488  and  _489
REMARK  207  A    between atoms: _492  and  _494
REMARK  208  A    between atoms: _494  and  _495
REMARK  209  A    between atoms: _494  and  _497
REMARK  210  A    between atoms: _495  and  _496
REMARK  211  A    between atoms: _495  and  _501
REMARK  212  A    between atoms: _497  and  _498
REMARK  213  A    between atoms: _502  and  _503
REMARK  214  A    between atoms: _508  and  _510
REMARK  215  A    between atoms: _510  and  _511
REMARK  216  A    between atoms: _510  and  _513
REMARK  217  A    between atoms: _513  and  _514
REMARK  218  A    between atoms: _517  and  _519
REMARK  219  A    between atoms: _519  and  _520
REMARK  220  A    between atoms: _519  and  _522
REMARK  221  A    between atoms: _522  and  _523
REMARK  222  A    between atoms: _528  and  _530
REMARK  223  A    between atoms: _530  and  _531
REMARK  224  A    between atoms: _530  and  _533
REMARK  225  A    between atoms: _536  and  _538
REMARK  226  A    between atoms: _538  and  _539
REMARK  227  A    between atoms: _538  and  _541
REMARK  228  A    between atoms: _541  and  _542
REMARK  229  A    between atoms: _545  and  _547
REMARK  230  A    between atoms: _547  and  _548
REMARK  231  A    between atoms: _550  and  _552
REMARK  232  A    between atoms: _552  and  _553
REMARK  233  A    between atoms: _552  and  _555
REMARK  234  A    between atoms: _555  and  _556
REMARK  235  A    between atoms: _556  and  _557
REMARK  236  A    between atoms: _557  and  _558
REMARK                            x       y       z     vdW  Elec       q    Type
REMARK                         _______ _______ _______ _____ _____    ______ ____
ROOT
ATOM      1  O   HOH     1      20.676  22.002   6.329  0.00  0.00    +0.000 OA
ENDROOT
TORSDOF 0
REMARK  Name = ../refined-set-2016/4cp7/4cp7_pocket.pdb
REMARK  236 active torsions:
REMARK  status: ('A' for Active; 'I' for Inactive)
REMARK    1  A    between atoms: _1  and  _3
REMARK    2  A    between atoms: _3  and  _4
REMARK    3  A    between atoms: _3  and  _6
REMARK    4  A    between atoms: _6  and  _7
REMARK    5  A    between atoms: _7  and  _8
REMARK    6  A    between atoms: _8  and  _9
REMARK    7  A    between atoms: _18  and  _20
REMARK    8  A    between atoms: _20  and  _21
REMARK    9  A    between atoms: _20  and  _23
REMARK   10  A    between atoms: _23  and  _24
REMARK   11  A    between atoms: _27  and  _29
REMARK   12  A    between atoms: _29  and  _30
REMARK   13  A    between atoms: _29  and  _32
REMARK   14  A    between atoms: _32  and  _33
REMARK   15  A    between atoms: _36  and  _38
REMARK   16  A    between atoms: _38  and  _39
REMARK   17  A    between atoms: _38  and  _41
REMARK   18  A    between atoms: _41  and  _42
REMARK   19  A    between atoms: _45  and  _47
REMARK   20  A    between atoms: _47  and  _48
REMARK   21  A    between atoms: _47  and  _50
REMARK   22  A    between atoms: _50  and  _51
REMARK   23  A    between atoms: _54  and  _56
REMARK   24  A    between atoms: _56  and  _57
REMARK   25  A    between atoms: _59  and  _61
REMARK   26  A    between atoms: _61  and  _62
REMARK   27  A    between atoms: _65  and  _67
REMARK   28  A    between atoms: _67  and  _68
REMARK   29  A    between atoms: _67  and  _70
REMARK   30  A    between atoms: _70  and  _71
REMARK   31  A    between atoms: _74  and  _76
REMARK   32  A    between atoms: _76  and  _77
REMARK   33  A    between atoms: _76  and  _79
REMARK   34  A    between atoms: _79  and  _80
REMARK   35  A    between atoms: _83  and  _85
REMARK   36  A    between atoms: _85  and  _86
REMARK   37  A    between atoms: _85  and  _88
REMARK   38  A    between atoms: _88  and  _89
REMARK   39  A    between atoms: _92  and  _94
REMARK   40  A    between atoms: _94  and  _95
REMARK   41  A    between atoms: _94  and  _97
REMARK   42  A    between atoms: _100  and  _102
REMARK   43  A    between atoms: _102  and  _103
REMARK   44  A    between atoms: _102  and  _105
REMARK   45  A    between atoms: _105  and  _106
REMARK   46  A    between atoms: _106  and  _107
REMARK   47  A    between atoms: _107  and  _108
REMARK   48  A    between atoms: _108  and  _109
REMARK   49  A    between atoms: _113  and  _115
REMARK   50  A    between atoms: _115  and  _116
REMARK   51  A    between atoms: _115  and  _118
REMARK   52  A    between atoms: _118  and  _119
REMARK   53  A    between atoms: _119  and  _120
REMARK   54  A    between atoms: _122  and  _124
REMARK   55  A    between atoms: _124  and  _125
REMARK   56  A    between atoms: _124  and  _127
REMARK   57  A    between atoms: _127  and  _128
REMARK   58  A    between atoms: _131  and  _133
REMARK   59  A    between atoms: _133  and  _134
REMARK   60  A    between atoms: _136  and  _138
REMARK   61  A    between atoms: _138  and  _139
REMARK   62  A    between atoms: _141  and  _143
REMARK   63  A    between atoms: _143  and  _144
REMARK   64  A    between atoms: _143  and  _146
REMARK   65  A    between atoms: _146  and  _147
REMARK   66  A    between atoms: _150  and  _152
REMARK   67  A    between atoms: _152  and  _153
REMARK   68  A    between atoms: _155  and  _157
REMARK   69  A    between atoms: _157  and  _158
REMARK   70  A    between atoms: _160  and  _162
REMARK   71  A    between atoms: _162  and  _163
REMARK   72  A    between atoms: _162  and  _165
REMARK   73  A    between atoms: _165  and  _166
REMARK   74  A    between atoms: _172  and  _174
REMARK   75  A    between atoms: _174  and  _175
REMARK   76  A    between atoms: _174  and  _177
REMARK   77  A    between atoms: _177  and  _178
REMARK   78  A    between atoms: _181  and  _183
REMARK   79  A    between atoms: _183  and  _184
REMARK   80  A    between atoms: _183  and  _186
REMARK   81  A    between atoms: _186  and  _187
REMARK   82  A    between atoms: _190  and  _192
REMARK   83  A    between atoms: _192  and  _193
REMARK   84  A    between atoms: _192  and  _195
REMARK   85  A    between atoms: _195  and  _196
REMARK   86  A    between atoms: _200  and  _201
REMARK   87  A    between atoms: _206  and  _208
REMARK   88  A    between atoms: _208  and  _209
REMARK   89  A    between atoms: _208  and  _211
REMARK   90  A    between atoms: _211  and  _212
REMARK   91  A    between atoms: _215  and  _217
REMARK   92  A    between atoms: _217  and  _218
REMARK   93  A    between atoms: _217  and  _220
REMARK   94  A    between atoms: _220  and  _221
REMARK   95  A    between atoms: _226  and  _228
REMARK   96  A    between atoms: _228  and  _229
REMARK   97  A    between atoms: _228  and  _231
REMARK   98  A    between atoms: _234  and  _236
REMARK   99  A    between atoms: _236  and  _237
REMARK  100  A    between atoms: _236  and  _239
REMARK  101  A    between atoms: _239  and  _240
REMARK  102  A    between atoms: _243  and  _245
REMARK  103  A    between atoms: _245  and  _246
REMARK  104  A    between atoms: _248  and  _250
REMARK  105  A    between atoms: _250  and  _251
REMARK  106  A    between atoms: _250  and  _253
REMARK  107  A    between atoms: _253  and  _254
REMARK  108  A    between atoms: _254  and  _255
REMARK  109  A    between atoms: _255  and  _256
REMARK  110  A    between atoms: _265  and  _267
REMARK  111  A    between atoms: _267  and  _268
REMARK  112  A    between atoms: _267  and  _270
REMARK  113  A    between atoms: _270  and  _271
REMARK  114  A    between atoms: _276  and  _278
REMARK  115  A    between atoms: _278  and  _279
REMARK  116  A    between atoms: _278  and  _281
REMARK  117  A    between atoms: _281  and  _282
REMARK  118  A    between atoms: _282  and  _283
REMARK  119  A    between atoms: _283  and  _284
REMARK  120  A    between atoms: _293  and  _295
REMARK  121  A    between atoms: _295  and  _296
REMARK  122  A    between atoms: _295  and  _298
REMARK  123  A    between atoms: _298  and  _299
REMARK  124  A    between atoms: _302  and  _304
REMARK  125  A    between atoms: _304  and  _305
REMARK  126  A    between atoms: _304  and  _307
REMARK  127  A    between atoms: _307  and  _308
REMARK  128  A    between atoms: _311  and  _313
REMARK  129  A    between atoms: _313  and  _314
REMARK  130  A    between atoms: _313  and  _316
REMARK  131  A    between atoms: _316  and  _317
REMARK  132  A    between atoms: _320  and  _322
REMARK  133  A    between atoms: _322  and  _323
REMARK  134  A    between atoms: _322  and  _325
REMARK  135  A    between atoms: _325  and  _326
REMARK  136  A    between atoms: _329  and  _331
REMARK  137  A    between atoms: _331  and  _332
REMARK  138  A    between atoms: _331  and  _334
REMARK  139  A    between atoms: _334  and  _335
REMARK  140  A    between atoms: _338  and  _340
REMARK  141  A    between atoms: _340  and  _341
REMARK  142  A    between atoms: _343  and  _345
REMARK  143  A    between atoms: _345  and  _346
REMARK  144  A    between atoms: _349  and  _351
REMARK  145  A    between atoms: _351  and  _352
REMARK  146  A    between atoms: _351  and  _354
REMARK  147  A    between atoms: _354  and  _355
REMARK  148  A    between atoms: _358  and  _360
REMARK  149  A    between atoms: _360  and  _361
REMARK  150  A    between atoms: _360  and  _363
REMARK  151  A    between atoms: _363  and  _364
REMARK  152  A    between atoms: _367  and  _369
REMARK  153  A    between atoms: _369  and  _370
REMARK  154  A    between atoms: _369  and  _372
REMARK  155  A    between atoms: _372  and  _373
REMARK  156  A    between atoms: _376  and  _378
REMARK  157  A    between atoms: _378  and  _379
REMARK  158  A    between atoms: _378  and  _381
REMARK  159  A    between atoms: _384  and  _386
REMARK  160  A    between atoms: _386  and  _387
REMARK  161  A    between atoms: _386  and  _389
REMARK  162  A    between atoms: _389  and  _390
REMARK  163  A    between atoms: _390  and  _391
REMARK  164  A    between atoms: _394  and  _396
REMARK  165  A    between atoms: _396  and  _397
REMARK  166  A    between atoms: _396  and  _399
REMARK  167  A    between atoms: _399  and  _400
REMARK  168  A    between atoms: _400  and  _401
REMARK  169  A    between atoms: _401  and  _402
REMARK  170  A    between atoms: _402  and  _403
REMARK  171  A    between atoms: _407  and  _409
REMARK  172  A    between atoms: _409  and  _410
REMARK  173  A    between atoms: _409  and  _412
REMARK  174  A    between atoms: _412  and  _413
REMARK  175  A    between atoms: _413  and  _414
REMARK  176  A    between atoms: _416  and  _418
REMARK  177  A    between atoms: _418  and  _419
REMARK  178  A    between atoms: _418  and  _421
REMARK  179  A    between atoms: _421  and  _422
REMARK  180  A    between atoms: _425  and  _427
REMARK  181  A    between atoms: _427  and  _428
REMARK  182  A    between atoms: _430  and  _432
REMARK  183  A    between atoms: _432  and  _433
REMARK  184  A    between atoms: _435  and  _437
REMARK  185  A    between atoms: _437  and  _438
REMARK  186  A    between atoms: _437  and  _440
REMARK  187  A    between atoms: _440  and  _441
REMARK  188  A    between atoms: _444  and  _446
REMARK  189  A    between atoms: _446  and  _447
REMARK  190  A    between atoms: _449  and  _451
REMARK  191  A    between atoms: _451  and  _452
REMARK  192  A    between atoms: _454  and  _456
REMARK  193  A    between atoms: _456  and  _457
REMARK  194  A    between atoms: _456  and  _459
REMARK  195  A    between atoms: _459  and  _460
REMARK  196  A    between atoms: _466  and  _468
REMARK  197  A    between atoms: _468  and  _469
REMARK  198  A    between atoms: _468  and  _471
REMARK  199  A    between atoms: _471  and  _472
REMARK  200  A    between atoms: _475  and  _477
REMARK  201  A    between atoms: _477  and  _478
REMARK  202  A    between atoms: _477  and  _480
REMARK  203  A    between atoms: _483  and  _485
REMARK  204  A    between atoms: _485  and  _486
REMARK  205  A    between atoms: _485  and  _488
REMARK  206  A    between atoms: _488  and  _489
REMARK  207  A    between atoms: _492  and  _494
REMARK  208  A    between atoms: _494  and  _495
REMARK  209  A    between atoms: _494  and  _497
REMARK  210  A    between atoms: _495  and  _496
REMARK  211  A    between atoms: _495  and  _501
REMARK  212  A    between atoms: _497  and  _498
REMARK  213  A    between atoms: _502  and  _503
REMARK  214  A    between atoms: _508  and  _510
REMARK  215  A    between atoms: _510  and  _511
REMARK  216  A    between atoms: _510  and  _513
REMARK  217  A    between atoms: _513  and  _514
REMARK  218  A    between atoms: _517  and  _519
REMARK  219  A    between atoms: _519  and  _520
REMARK  220  A    between atoms: _519  and  _522
REMARK  221  A    between atoms: _522  and  _523
REMARK  222  A    between atoms: _528  and  _530
REMARK  223  A    between atoms: _530  and  _531
REMARK  224  A    between atoms: _530  and  _533
REMARK  225  A    between atoms: _536  and  _538
REMARK  226  A    between atoms: _538  and  _539
REMARK  227  A    between atoms: _538  and  _541
REMARK  228  A    between atoms: _541  and  _542
REMARK  229  A    between atoms: _545  and  _547
REMARK  230  A    between atoms: _547  and  _548
REMARK  231  A    between atoms: _550  and  _552
REMARK  232  A    between atoms: _552  and  _553
REMARK  233  A    between atoms: _552  and  _555
REMARK  234  A    between atoms: _555  and  _556
REMARK  235  A    between atoms: _556  and  _557
REMARK  236  A    between atoms: _557  and  _558
REMARK                            x       y       z     vdW  Elec       q    Type
REMARK                         _______ _______ _______ _____ _____    ______ ____
ROOT
ATOM      1  O   HOH     1      20.612  18.729  10.684  0.00  0.00    +0.000 OA
ENDROOT
TORSDOF 0
REMARK  Name = ../refined-set-2016/4cp7/4cp7_pocket.pdb
REMARK  236 active torsions:
REMARK  status: ('A' for Active; 'I' for Inactive)
REMARK    1  A    between atoms: _1  and  _3
REMARK    2  A    between atoms: _3  and  _4
REMARK    3  A    between atoms: _3  and  _6
REMARK    4  A    between atoms: _6  and  _7
REMARK    5  A    between atoms: _7  and  _8
REMARK    6  A    between atoms: _8  and  _9
REMARK    7  A    between atoms: _18  and  _20
REMARK    8  A    between atoms: _20  and  _21
REMARK    9  A    between atoms: _20  and  _23
REMARK   10  A    between atoms: _23  and  _24
REMARK   11  A    between atoms: _27  and  _29
REMARK   12  A    between atoms: _29  and  _30
REMARK   13  A    between atoms: _29  and  _32
REMARK   14  A    between atoms: _32  and  _33
REMARK   15  A    between atoms: _36  and  _38
REMARK   16  A    between atoms: _38  and  _39
REMARK   17  A    between atoms: _38  and  _41
REMARK   18  A    between atoms: _41  and  _42
REMARK   19  A    between atoms: _45  and  _47
REMARK   20  A    between atoms: _47  and  _48
REMARK   21  A    between atoms: _47  and  _50
REMARK   22  A    between atoms: _50  and  _51
REMARK   23  A    between atoms: _54  and  _56
REMARK   24  A    between atoms: _56  and  _57
REMARK   25  A    between atoms: _59  and  _61
REMARK   26  A    between atoms: _61  and  _62
REMARK   27  A    between atoms: _65  and  _67
REMARK   28  A    between atoms: _67  and  _68
REMARK   29  A    between atoms: _67  and  _70
REMARK   30  A    between atoms: _70  and  _71
REMARK   31  A    between atoms: _74  and  _76
REMARK   32  A    between atoms: _76  and  _77
REMARK   33  A    between atoms: _76  and  _79
REMARK   34  A    between atoms: _79  and  _80
REMARK   35  A    between atoms: _83  and  _85
REMARK   36  A    between atoms: _85  and  _86
REMARK   37  A    between atoms: _85  and  _88
REMARK   38  A    between atoms: _88  and  _89
REMARK   39  A    between atoms: _92  and  _94
REMARK   40  A    between atoms: _94  and  _95
REMARK   41  A    between atoms: _94  and  _97
REMARK   42  A    between atoms: _100  and  _102
REMARK   43  A    between atoms: _102  and  _103
REMARK   44  A    between atoms: _102  and  _105
REMARK   45  A    between atoms: _105  and  _106
REMARK   46  A    between atoms: _106  and  _107
REMARK   47  A    between atoms: _107  and  _108
REMARK   48  A    between atoms: _108  and  _109
REMARK   49  A    between atoms: _113  and  _115
REMARK   50  A    between atoms: _115  and  _116
REMARK   51  A    between atoms: _115  and  _118
REMARK   52  A    between atoms: _118  and  _119
REMARK   53  A    between atoms: _119  and  _120
REMARK   54  A    between atoms: _122  and  _124
REMARK   55  A    between atoms: _124  and  _125
REMARK   56  A    between atoms: _124  and  _127
REMARK   57  A    between atoms: _127  and  _128
REMARK   58  A    between atoms: _131  and  _133
REMARK   59  A    between atoms: _133  and  _134
REMARK   60  A    between atoms: _136  and  _138
REMARK   61  A    between atoms: _138  and  _139
REMARK   62  A    between atoms: _141  and  _143
REMARK   63  A    between atoms: _143  and  _144
REMARK   64  A    between atoms: _143  and  _146
REMARK   65  A    between atoms: _146  and  _147
REMARK   66  A    between atoms: _150  and  _152
REMARK   67  A    between atoms: _152  and  _153
REMARK   68  A    between atoms: _155  and  _157
REMARK   69  A    between atoms: _157  and  _158
REMARK   70  A    between atoms: _160  and  _162
REMARK   71  A    between atoms: _162  and  _163
REMARK   72  A    between atoms: _162  and  _165
REMARK   73  A    between atoms: _165  and  _166
REMARK   74  A    between atoms: _172  and  _174
REMARK   75  A    between atoms: _174  and  _175
REMARK   76  A    between atoms: _174  and  _177
REMARK   77  A    between atoms: _177  and  _178
REMARK   78  A    between atoms: _181  and  _183
REMARK   79  A    between atoms: _183  and  _184
REMARK   80  A    between atoms: _183  and  _186
REMARK   81  A    between atoms: _186  and  _187
REMARK   82  A    between atoms: _190  and  _192
REMARK   83  A    between atoms: _192  and  _193
REMARK   84  A    between atoms: _192  and  _195
REMARK   85  A    between atoms: _195  and  _196
REMARK   86  A    between atoms: _200  and  _201
REMARK   87  A    between atoms: _206  and  _208
REMARK   88  A    between atoms: _208  and  _209
REMARK   89  A    between atoms: _208  and  _211
REMARK   90  A    between atoms: _211  and  _212
REMARK   91  A    between atoms: _215  and  _217
REMARK   92  A    between atoms: _217  and  _218
REMARK   93  A    between atoms: _217  and  _220
REMARK   94  A    between atoms: _220  and  _221
REMARK   95  A    between atoms: _226  and  _228
REMARK   96  A    between atoms: _228  and  _229
REMARK   97  A    between atoms: _228  and  _231
REMARK   98  A    between atoms: _234  and  _236
REMARK   99  A    between atoms: _236  and  _237
REMARK  100  A    between atoms: _236  and  _239
REMARK  101  A    between atoms: _239  and  _240
REMARK  102  A    between atoms: _243  and  _245
REMARK  103  A    between atoms: _245  and  _246
REMARK  104  A    between atoms: _248  and  _250
REMARK  105  A    between atoms: _250  and  _251
REMARK  106  A    between atoms: _250  and  _253
REMARK  107  A    between atoms: _253  and  _254
REMARK  108  A    between atoms: _254  and  _255
REMARK  109  A    between atoms: _255  and  _256
REMARK  110  A    between atoms: _265  and  _267
REMARK  111  A    between atoms: _267  and  _268
REMARK  112  A    between atoms: _267  and  _270
REMARK  113  A    between atoms: _270  and  _271
REMARK  114  A    between atoms: _276  and  _278
REMARK  115  A    between atoms: _278  and  _279
REMARK  116  A    between atoms: _278  and  _281
REMARK  117  A    between atoms: _281  and  _282
REMARK  118  A    between atoms: _282  and  _283
REMARK  119  A    between atoms: _283  and  _284
REMARK  120  A    between atoms: _293  and  _295
REMARK  121  A    between atoms: _295  and  _296
REMARK  122  A    between atoms: _295  and  _298
REMARK  123  A    between atoms: _298  and  _299
REMARK  124  A    between atoms: _302  and  _304
REMARK  125  A    between atoms: _304  and  _305
REMARK  126  A    between atoms: _304  and  _307
REMARK  127  A    between atoms: _307  and  _308
REMARK  128  A    between atoms: _311  and  _313
REMARK  129  A    between atoms: _313  and  _314
REMARK  130  A    between atoms: _313  and  _316
REMARK  131  A    between atoms: _316  and  _317
REMARK  132  A    between atoms: _320  and  _322
REMARK  133  A    between atoms: _322  and  _323
REMARK  134  A    between atoms: _322  and  _325
REMARK  135  A    between atoms: _325  and  _326
REMARK  136  A    between atoms: _329  and  _331
REMARK  137  A    between atoms: _331  and  _332
REMARK  138  A    between atoms: _331  and  _334
REMARK  139  A    between atoms: _334  and  _335
REMARK  140  A    between atoms: _338  and  _340
REMARK  141  A    between atoms: _340  and  _341
REMARK  142  A    between atoms: _343  and  _345
REMARK  143  A    between atoms: _345  and  _346
REMARK  144  A    between atoms: _349  and  _351
REMARK  145  A    between atoms: _351  and  _352
REMARK  146  A    between atoms: _351  and  _354
REMARK  147  A    between atoms: _354  and  _355
REMARK  148  A    between atoms: _358  and  _360
REMARK  149  A    between atoms: _360  and  _361
REMARK  150  A    between atoms: _360  and  _363
REMARK  151  A    between atoms: _363  and  _364
REMARK  152  A    between atoms: _367  and  _369
REMARK  153  A    between atoms: _369  and  _370
REMARK  154  A    between atoms: _369  and  _372
REMARK  155  A    between atoms: _372  and  _373
REMARK  156  A    between atoms: _376  and  _378
REMARK  157  A    between atoms: _378  and  _379
REMARK  158  A    between atoms: _378  and  _381
REMARK  159  A    between atoms: _384  and  _386
REMARK  160  A    between atoms: _386  and  _387
REMARK  161  A    between atoms: _386  and  _389
REMARK  162  A    between atoms: _389  and  _390
REMARK  163  A    between atoms: _390  and  _391
REMARK  164  A    between atoms: _394  and  _396
REMARK  165  A    between atoms: _396  and  _397
REMARK  166  A    between atoms: _396  and  _399
REMARK  167  A    between atoms: _399  and  _400
REMARK  168  A    between atoms: _400  and  _401
REMARK  169  A    between atoms: _401  and  _402
REMARK  170  A    between atoms: _402  and  _403
REMARK  171  A    between atoms: _407  and  _409
REMARK  172  A    between atoms: _409  and  _410
REMARK  173  A    between atoms: _409  and  _412
REMARK  174  A    between atoms: _412  and  _413
REMARK  175  A    between atoms: _413  and  _414
REMARK  176  A    between atoms: _416  and  _418
REMARK  177  A    between atoms: _418  and  _419
REMARK  178  A    between atoms: _418  and  _421
REMARK  179  A    between atoms: _421  and  _422
REMARK  180  A    between atoms: _425  and  _427
REMARK  181  A    between atoms: _427  and  _428
REMARK  182  A    between atoms: _430  and  _432
REMARK  183  A    between atoms: _432  and  _433
REMARK  184  A    between atoms: _435  and  _437
REMARK  185  A    between atoms: _437  and  _438
REMARK  186  A    between atoms: _437  and  _440
REMARK  187  A    between atoms: _440  and  _441
REMARK  188  A    between atoms: _444  and  _446
REMARK  189  A    between atoms: _446  and  _447
REMARK  190  A    between atoms: _449  and  _451
REMARK  191  A    between atoms: _451  and  _452
REMARK  192  A    between atoms: _454  and  _456
REMARK  193  A    between atoms: _456  and  _457
REMARK  194  A    between atoms: _456  and  _459
REMARK  195  A    between atoms: _459  and  _460
REMARK  196  A    between atoms: _466  and  _468
REMARK  197  A    between atoms: _468  and  _469
REMARK  198  A    between atoms: _468  and  _471
REMARK  199  A    between atoms: _471  and  _472
REMARK  200  A    between atoms: _475  and  _477
REMARK  201  A    between atoms: _477  and  _478
REMARK  202  A    between atoms: _477  and  _480
REMARK  203  A    between atoms: _483  and  _485
REMARK  204  A    between atoms: _485  and  _486
REMARK  205  A    between atoms: _485  and  _488
REMARK  206  A    between atoms: _488  and  _489
REMARK  207  A    between atoms: _492  and  _494
REMARK  208  A    between atoms: _494  and  _495
REMARK  209  A    between atoms: _494  and  _497
REMARK  210  A    between atoms: _495  and  _496
REMARK  211  A    between atoms: _495  and  _501
REMARK  212  A    between atoms: _497  and  _498
REMARK  213  A    between atoms: _502  and  _503
REMARK  214  A    between atoms: _508  and  _510
REMARK  215  A    between atoms: _510  and  _511
REMARK  216  A    between atoms: _510  and  _513
REMARK  217  A    between atoms: _513  and  _514
REMARK  218  A    between atoms: _517  and  _519
REMARK  219  A    between atoms: _519  and  _520
REMARK  220  A    between atoms: _519  and  _522
REMARK  221  A    between atoms: _522  and  _523
REMARK  222  A    between atoms: _528  and  _530
REMARK  223  A    between atoms: _530  and  _531
REMARK  224  A    between atoms: _530  and  _533
REMARK  225  A    between atoms: _536  and  _538
REMARK  226  A    between atoms: _538  and  _539
REMARK  227  A    between atoms: _538  and  _541
REMARK  228  A    between atoms: _541  and  _542
REMARK  229  A    between atoms: _545  and  _547
REMARK  230  A    between atoms: _547  and  _548
REMARK  231  A    between atoms: _550  and  _552
REMARK  232  A    between atoms: _552  and  _553
REMARK  233  A    between atoms: _552  and  _555
REMARK  234  A    between atoms: _555  and  _556
REMARK  235  A    between atoms: _556  and  _557
REMARK  236  A    between atoms: _557  and  _558
REMARK                            x       y       z     vdW  Elec       q    Type
REMARK                         _______ _______ _______ _____ _____    ______ ____
ROOT
ATOM      1  O   HOH     1      24.469  21.773  11.680  0.00  0.00    +0.000 OA
ENDROOT
TORSDOF 0
REMARK  Name = ../refined-set-2016/4cp7/4cp7_pocket.pdb
REMARK  236 active torsions:
REMARK  status: ('A' for Active; 'I' for Inactive)
REMARK    1  A    between atoms: _1  and  _3
REMARK    2  A    between atoms: _3  and  _4
REMARK    3  A    between atoms: _3  and  _6
REMARK    4  A    between atoms: _6  and  _7
REMARK    5  A    between atoms: _7  and  _8
REMARK    6  A    between atoms: _8  and  _9
REMARK    7  A    between atoms: _18  and  _20
REMARK    8  A    between atoms: _20  and  _21
REMARK    9  A    between atoms: _20  and  _23
REMARK   10  A    between atoms: _23  and  _24
REMARK   11  A    between atoms: _27  and  _29
REMARK   12  A    between atoms: _29  and  _30
REMARK   13  A    between atoms: _29  and  _32
REMARK   14  A    between atoms: _32  and  _33
REMARK   15  A    between atoms: _36  and  _38
REMARK   16  A    between atoms: _38  and  _39
REMARK   17  A    between atoms: _38  and  _41
REMARK   18  A    between atoms: _41  and  _42
REMARK   19  A    between atoms: _45  and  _47
REMARK   20  A    between atoms: _47  and  _48
REMARK   21  A    between atoms: _47  and  _50
REMARK   22  A    between atoms: _50  and  _51
REMARK   23  A    between atoms: _54  and  _56
REMARK   24  A    between atoms: _56  and  _57
REMARK   25  A    between atoms: _59  and  _61
REMARK   26  A    between atoms: _61  and  _62
REMARK   27  A    between atoms: _65  and  _67
REMARK   28  A    between atoms: _67  and  _68
REMARK   29  A    between atoms: _67  and  _70
REMARK   30  A    between atoms: _70  and  _71
REMARK   31  A    between atoms: _74  and  _76
REMARK   32  A    between atoms: _76  and  _77
REMARK   33  A    between atoms: _76  and  _79
REMARK   34  A    between atoms: _79  and  _80
REMARK   35  A    between atoms: _83  and  _85
REMARK   36  A    between atoms: _85  and  _86
REMARK   37  A    between atoms: _85  and  _88
REMARK   38  A    between atoms: _88  and  _89
REMARK   39  A    between atoms: _92  and  _94
REMARK   40  A    between atoms: _94  and  _95
REMARK   41  A    between atoms: _94  and  _97
REMARK   42  A    between atoms: _100  and  _102
REMARK   43  A    between atoms: _102  and  _103
REMARK   44  A    between atoms: _102  and  _105
REMARK   45  A    between atoms: _105  and  _106
REMARK   46  A    between atoms: _106  and  _107
REMARK   47  A    between atoms: _107  and  _108
REMARK   48  A    between atoms: _108  and  _109
REMARK   49  A    between atoms: _113  and  _115
REMARK   50  A    between atoms: _115  and  _116
REMARK   51  A    between atoms: _115  and  _118
REMARK   52  A    between atoms: _118  and  _119
REMARK   53  A    between atoms: _119  and  _120
REMARK   54  A    between atoms: _122  and  _124
REMARK   55  A    between atoms: _124  and  _125
REMARK   56  A    between atoms: _124  and  _127
REMARK   57  A    between atoms: _127  and  _128
REMARK   58  A    between atoms: _131  and  _133
REMARK   59  A    between atoms: _133  and  _134
REMARK   60  A    between atoms: _136  and  _138
REMARK   61  A    between atoms: _138  and  _139
REMARK   62  A    between atoms: _141  and  _143
REMARK   63  A    between atoms: _143  and  _144
REMARK   64  A    between atoms: _143  and  _146
REMARK   65  A    between atoms: _146  and  _147
REMARK   66  A    between atoms: _150  and  _152
REMARK   67  A    between atoms: _152  and  _153
REMARK   68  A    between atoms: _155  and  _157
REMARK   69  A    between atoms: _157  and  _158
REMARK   70  A    between atoms: _160  and  _162
REMARK   71  A    between atoms: _162  and  _163
REMARK   72  A    between atoms: _162  and  _165
REMARK   73  A    between atoms: _165  and  _166
REMARK   74  A    between atoms: _172  and  _174
REMARK   75  A    between atoms: _174  and  _175
REMARK   76  A    between atoms: _174  and  _177
REMARK   77  A    between atoms: _177  and  _178
REMARK   78  A    between atoms: _181  and  _183
REMARK   79  A    between atoms: _183  and  _184
REMARK   80  A    between atoms: _183  and  _186
REMARK   81  A    between atoms: _186  and  _187
REMARK   82  A    between atoms: _190  and  _192
REMARK   83  A    between atoms: _192  and  _193
REMARK   84  A    between atoms: _192  and  _195
REMARK   85  A    between atoms: _195  and  _196
REMARK   86  A    between atoms: _200  and  _201
REMARK   87  A    between atoms: _206  and  _208
REMARK   88  A    between atoms: _208  and  _209
REMARK   89  A    between atoms: _208  and  _211
REMARK   90  A    between atoms: _211  and  _212
REMARK   91  A    between atoms: _215  and  _217
REMARK   92  A    between atoms: _217  and  _218
REMARK   93  A    between atoms: _217  and  _220
REMARK   94  A    between atoms: _220  and  _221
REMARK   95  A    between atoms: _226  and  _228
REMARK   96  A    between atoms: _228  and  _229
REMARK   97  A    between atoms: _228  and  _231
REMARK   98  A    between atoms: _234  and  _236
REMARK   99  A    between atoms: _236  and  _237
REMARK  100  A    between atoms: _236  and  _239
REMARK  101  A    between atoms: _239  and  _240
REMARK  102  A    between atoms: _243  and  _245
REMARK  103  A    between atoms: _245  and  _246
REMARK  104  A    between atoms: _248  and  _250
REMARK  105  A    between atoms: _250  and  _251
REMARK  106  A    between atoms: _250  and  _253
REMARK  107  A    between atoms: _253  and  _254
REMARK  108  A    between atoms: _254  and  _255
REMARK  109  A    between atoms: _255  and  _256
REMARK  110  A    between atoms: _265  and  _267
REMARK  111  A    between atoms: _267  and  _268
REMARK  112  A    between atoms: _267  and  _270
REMARK  113  A    between atoms: _270  and  _271
REMARK  114  A    between atoms: _276  and  _278
REMARK  115  A    between atoms: _278  and  _279
REMARK  116  A    between atoms: _278  and  _281
REMARK  117  A    between atoms: _281  and  _282
REMARK  118  A    between atoms: _282  and  _283
REMARK  119  A    between atoms: _283  and  _284
REMARK  120  A    between atoms: _293  and  _295
REMARK  121  A    between atoms: _295  and  _296
REMARK  122  A    between atoms: _295  and  _298
REMARK  123  A    between atoms: _298  and  _299
REMARK  124  A    between atoms: _302  and  _304
REMARK  125  A    between atoms: _304  and  _305
REMARK  126  A    between atoms: _304  and  _307
REMARK  127  A    between atoms: _307  and  _308
REMARK  128  A    between atoms: _311  and  _313
REMARK  129  A    between atoms: _313  and  _314
REMARK  130  A    between atoms: _313  and  _316
REMARK  131  A    between atoms: _316  and  _317
REMARK  132  A    between atoms: _320  and  _322
REMARK  133  A    between atoms: _322  and  _323
REMARK  134  A    between atoms: _322  and  _325
REMARK  135  A    between atoms: _325  and  _326
REMARK  136  A    between atoms: _329  and  _331
REMARK  137  A    between atoms: _331  and  _332
REMARK  138  A    between atoms: _331  and  _334
REMARK  139  A    between atoms: _334  and  _335
REMARK  140  A    between atoms: _338  and  _340
REMARK  141  A    between atoms: _340  and  _341
REMARK  142  A    between atoms: _343  and  _345
REMARK  143  A    between atoms: _345  and  _346
REMARK  144  A    between atoms: _349  and  _351
REMARK  145  A    between atoms: _351  and  _352
REMARK  146  A    between atoms: _351  and  _354
REMARK  147  A    between atoms: _354  and  _355
REMARK  148  A    between atoms: _358  and  _360
REMARK  149  A    between atoms: _360  and  _361
REMARK  150  A    between atoms: _360  and  _363
REMARK  151  A    between atoms: _363  and  _364
REMARK  152  A    between atoms: _367  and  _369
REMARK  153  A    between atoms: _369  and  _370
REMARK  154  A    between atoms: _369  and  _372
REMARK  155  A    between atoms: _372  and  _373
REMARK  156  A    between atoms: _376  and  _378
REMARK  157  A    between atoms: _378  and  _379
REMARK  158  A    between atoms: _378  and  _381
REMARK  159  A    between atoms: _384  and  _386
REMARK  160  A    between atoms: _386  and  _387
REMARK  161  A    between atoms: _386  and  _389
REMARK  162  A    between atoms: _389  and  _390
REMARK  163  A    between atoms: _390  and  _391
REMARK  164  A    between atoms: _394  and  _396
REMARK  165  A    between atoms: _396  and  _397
REMARK  166  A    between atoms: _396  and  _399
REMARK  167  A    between atoms: _399  and  _400
REMARK  168  A    between atoms: _400  and  _401
REMARK  169  A    between atoms: _401  and  _402
REMARK  170  A    between atoms: _402  and  _403
REMARK  171  A    between atoms: _407  and  _409
REMARK  172  A    between atoms: _409  and  _410
REMARK  173  A    between atoms: _409  and  _412
REMARK  174  A    between atoms: _412  and  _413
REMARK  175  A    between atoms: _413  and  _414
REMARK  176  A    between atoms: _416  and  _418
REMARK  177  A    between atoms: _418  and  _419
REMARK  178  A    between atoms: _418  and  _421
REMARK  179  A    between atoms: _421  and  _422
REMARK  180  A    between atoms: _425  and  _427
REMARK  181  A    between atoms: _427  and  _428
REMARK  182  A    between atoms: _430  and  _432
REMARK  183  A    between atoms: _432  and  _433
REMARK  184  A    between atoms: _435  and  _437
REMARK  185  A    between atoms: _437  and  _438
REMARK  186  A    between atoms: _437  and  _440
REMARK  187  A    between atoms: _440  and  _441
REMARK  188  A    between atoms: _444  and  _446
REMARK  189  A    between atoms: _446  and  _447
REMARK  190  A    between atoms: _449  and  _451
REMARK  191  A    between atoms: _451  and  _452
REMARK  192  A    between atoms: _454  and  _456
REMARK  193  A    between atoms: _456  and  _457
REMARK  194  A    between atoms: _456  and  _459
REMARK  195  A    between atoms: _459  and  _460
REMARK  196  A    between atoms: _466  and  _468
REMARK  197  A    between atoms: _468  and  _469
REMARK  198  A    between atoms: _468  and  _471
REMARK  199  A    between atoms: _471  and  _472
REMARK  200  A    between atoms: _475  and  _477
REMARK  201  A    between atoms: _477  and  _478
REMARK  202  A    between atoms: _477  and  _480
REMARK  203  A    between atoms: _483  and  _485
REMARK  204  A    between atoms: _485  and  _486
REMARK  205  A    between atoms: _485  and  _488
REMARK  206  A    between atoms: _488  and  _489
REMARK  207  A    between atoms: _492  and  _494
REMARK  208  A    between atoms: _494  and  _495
REMARK  209  A    between atoms: _494  and  _497
REMARK  210  A    between atoms: _495  and  _496
REMARK  211  A    between atoms: _495  and  _501
REMARK  212  A    between atoms: _497  and  _498
REMARK  213  A    between atoms: _502  and  _503
REMARK  214  A    between atoms: _508  and  _510
REMARK  215  A    between atoms: _510  and  _511
REMARK  216  A    between atoms: _510  and  _513
REMARK  217  A    between atoms: _513  and  _514
REMARK  218  A    between atoms: _517  and  _519
REMARK  219  A    between atoms: _519  and  _520
REMARK  220  A    between atoms: _519  and  _522
REMARK  221  A    between atoms: _522  and  _523
REMARK  222  A    between atoms: _528  and  _530
REMARK  223  A    between atoms: _530  and  _531
REMARK  224  A    between atoms: _530  and  _533
REMARK  225  A    between atoms: _536  and  _538
REMARK  226  A    between atoms: _538  and  _539
REMARK  227  A    between atoms: _538  and  _541
REMARK  228  A    between atoms: _541  and  _542
REMARK  229  A    between atoms: _545  and  _547
REMARK  230  A    between atoms: _547  and  _548
REMARK  231  A    between atoms: _550  and  _552
REMARK  232  A    between atoms: _552  and  _553
REMARK  233  A    between atoms: _552  and  _555
REMARK  234  A    between atoms: _555  and  _556
REMARK  235  A    between atoms: _556  and  _557
REMARK  236  A    between atoms: _557  and  _558
REMARK                            x       y       z     vdW  Elec       q    Type
REMARK                         _______ _______ _______ _____ _____    ______ ____
ROOT
ATOM      1  O   HOH     1      -1.727  31.632   9.126  0.00  0.00    +0.000 OA
ENDROOT
TORSDOF 0
REMARK  Name = ../refined-set-2016/4cp7/4cp7_pocket.pdb
REMARK  236 active torsions:
REMARK  status: ('A' for Active; 'I' for Inactive)
REMARK    1  A    between atoms: _1  and  _3
REMARK    2  A    between atoms: _3  and  _4
REMARK    3  A    between atoms: _3  and  _6
REMARK    4  A    between atoms: _6  and  _7
REMARK    5  A    between atoms: _7  and  _8
REMARK    6  A    between atoms: _8  and  _9
REMARK    7  A    between atoms: _18  and  _20
REMARK    8  A    between atoms: _20  and  _21
REMARK    9  A    between atoms: _20  and  _23
REMARK   10  A    between atoms: _23  and  _24
REMARK   11  A    between atoms: _27  and  _29
REMARK   12  A    between atoms: _29  and  _30
REMARK   13  A    between atoms: _29  and  _32
REMARK   14  A    between atoms: _32  and  _33
REMARK   15  A    between atoms: _36  and  _38
REMARK   16  A    between atoms: _38  and  _39
REMARK   17  A    between atoms: _38  and  _41
REMARK   18  A    between atoms: _41  and  _42
REMARK   19  A    between atoms: _45  and  _47
REMARK   20  A    between atoms: _47  and  _48
REMARK   21  A    between atoms: _47  and  _50
REMARK   22  A    between atoms: _50  and  _51
REMARK   23  A    between atoms: _54  and  _56
REMARK   24  A    between atoms: _56  and  _57
REMARK   25  A    between atoms: _59  and  _61
REMARK   26  A    between atoms: _61  and  _62
REMARK   27  A    between atoms: _65  and  _67
REMARK   28  A    between atoms: _67  and  _68
REMARK   29  A    between atoms: _67  and  _70
REMARK   30  A    between atoms: _70  and  _71
REMARK   31  A    between atoms: _74  and  _76
REMARK   32  A    between atoms: _76  and  _77
REMARK   33  A    between atoms: _76  and  _79
REMARK   34  A    between atoms: _79  and  _80
REMARK   35  A    between atoms: _83  and  _85
REMARK   36  A    between atoms: _85  and  _86
REMARK   37  A    between atoms: _85  and  _88
REMARK   38  A    between atoms: _88  and  _89
REMARK   39  A    between atoms: _92  and  _94
REMARK   40  A    between atoms: _94  and  _95
REMARK   41  A    between atoms: _94  and  _97
REMARK   42  A    between atoms: _100  and  _102
REMARK   43  A    between atoms: _102  and  _103
REMARK   44  A    between atoms: _102  and  _105
REMARK   45  A    between atoms: _105  and  _106
REMARK   46  A    between atoms: _106  and  _107
REMARK   47  A    between atoms: _107  and  _108
REMARK   48  A    between atoms: _108  and  _109
REMARK   49  A    between atoms: _113  and  _115
REMARK   50  A    between atoms: _115  and  _116
REMARK   51  A    between atoms: _115  and  _118
REMARK   52  A    between atoms: _118  and  _119
REMARK   53  A    between atoms: _119  and  _120
REMARK   54  A    between atoms: _122  and  _124
REMARK   55  A    between atoms: _124  and  _125
REMARK   56  A    between atoms: _124  and  _127
REMARK   57  A    between atoms: _127  and  _128
REMARK   58  A    between atoms: _131  and  _133
REMARK   59  A    between atoms: _133  and  _134
REMARK   60  A    between atoms: _136  and  _138
REMARK   61  A    between atoms: _138  and  _139
REMARK   62  A    between atoms: _141  and  _143
REMARK   63  A    between atoms: _143  and  _144
REMARK   64  A    between atoms: _143  and  _146
REMARK   65  A    between atoms: _146  and  _147
REMARK   66  A    between atoms: _150  and  _152
REMARK   67  A    between atoms: _152  and  _153
REMARK   68  A    between atoms: _155  and  _157
REMARK   69  A    between atoms: _157  and  _158
REMARK   70  A    between atoms: _160  and  _162
REMARK   71  A    between atoms: _162  and  _163
REMARK   72  A    between atoms: _162  and  _165
REMARK   73  A    between atoms: _165  and  _166
REMARK   74  A    between atoms: _172  and  _174
REMARK   75  A    between atoms: _174  and  _175
REMARK   76  A    between atoms: _174  and  _177
REMARK   77  A    between atoms: _177  and  _178
REMARK   78  A    between atoms: _181  and  _183
REMARK   79  A    between atoms: _183  and  _184
REMARK   80  A    between atoms: _183  and  _186
REMARK   81  A    between atoms: _186  and  _187
REMARK   82  A    between atoms: _190  and  _192
REMARK   83  A    between atoms: _192  and  _193
REMARK   84  A    between atoms: _192  and  _195
REMARK   85  A    between atoms: _195  and  _196
REMARK   86  A    between atoms: _200  and  _201
REMARK   87  A    between atoms: _206  and  _208
REMARK   88  A    between atoms: _208  and  _209
REMARK   89  A    between atoms: _208  and  _211
REMARK   90  A    between atoms: _211  and  _212
REMARK   91  A    between atoms: _215  and  _217
REMARK   92  A    between atoms: _217  and  _218
REMARK   93  A    between atoms: _217  and  _220
REMARK   94  A    between atoms: _220  and  _221
REMARK   95  A    between atoms: _226  and  _228
REMARK   96  A    between atoms: _228  and  _229
REMARK   97  A    between atoms: _228  and  _231
REMARK   98  A    between atoms: _234  and  _236
REMARK   99  A    between atoms: _236  and  _237
REMARK  100  A    between atoms: _236  and  _239
REMARK  101  A    between atoms: _239  and  _240
REMARK  102  A    between atoms: _243  and  _245
REMARK  103  A    between atoms: _245  and  _246
REMARK  104  A    between atoms: _248  and  _250
REMARK  105  A    between atoms: _250  and  _251
REMARK  106  A    between atoms: _250  and  _253
REMARK  107  A    between atoms: _253  and  _254
REMARK  108  A    between atoms: _254  and  _255
REMARK  109  A    between atoms: _255  and  _256
REMARK  110  A    between atoms: _265  and  _267
REMARK  111  A    between atoms: _267  and  _268
REMARK  112  A    between atoms: _267  and  _270
REMARK  113  A    between atoms: _270  and  _271
REMARK  114  A    between atoms: _276  and  _278
REMARK  115  A    between atoms: _278  and  _279
REMARK  116  A    between atoms: _278  and  _281
REMARK  117  A    between atoms: _281  and  _282
REMARK  118  A    between atoms: _282  and  _283
REMARK  119  A    between atoms: _283  and  _284
REMARK  120  A    between atoms: _293  and  _295
REMARK  121  A    between atoms: _295  and  _296
REMARK  122  A    between atoms: _295  and  _298
REMARK  123  A    between atoms: _298  and  _299
REMARK  124  A    between atoms: _302  and  _304
REMARK  125  A    between atoms: _304  and  _305
REMARK  126  A    between atoms: _304  and  _307
REMARK  127  A    between atoms: _307  and  _308
REMARK  128  A    between atoms: _311  and  _313
REMARK  129  A    between atoms: _313  and  _314
REMARK  130  A    between atoms: _313  and  _316
REMARK  131  A    between atoms: _316  and  _317
REMARK  132  A    between atoms: _320  and  _322
REMARK  133  A    between atoms: _322  and  _323
REMARK  134  A    between atoms: _322  and  _325
REMARK  135  A    between atoms: _325  and  _326
REMARK  136  A    between atoms: _329  and  _331
REMARK  137  A    between atoms: _331  and  _332
REMARK  138  A    between atoms: _331  and  _334
REMARK  139  A    between atoms: _334  and  _335
REMARK  140  A    between atoms: _338  and  _340
REMARK  141  A    between atoms: _340  and  _341
REMARK  142  A    between atoms: _343  and  _345
REMARK  143  A    between atoms: _345  and  _346
REMARK  144  A    between atoms: _349  and  _351
REMARK  145  A    between atoms: _351  and  _352
REMARK  146  A    between atoms: _351  and  _354
REMARK  147  A    between atoms: _354  and  _355
REMARK  148  A    between atoms: _358  and  _360
REMARK  149  A    between atoms: _360  and  _361
REMARK  150  A    between atoms: _360  and  _363
REMARK  151  A    between atoms: _363  and  _364
REMARK  152  A    between atoms: _367  and  _369
REMARK  153  A    between atoms: _369  and  _370
REMARK  154  A    between atoms: _369  and  _372
REMARK  155  A    between atoms: _372  and  _373
REMARK  156  A    between atoms: _376  and  _378
REMARK  157  A    between atoms: _378  and  _379
REMARK  158  A    between atoms: _378  and  _381
REMARK  159  A    between atoms: _384  and  _386
REMARK  160  A    between atoms: _386  and  _387
REMARK  161  A    between atoms: _386  and  _389
REMARK  162  A    between atoms: _389  and  _390
REMARK  163  A    between atoms: _390  and  _391
REMARK  164  A    between atoms: _394  and  _396
REMARK  165  A    between atoms: _396  and  _397
REMARK  166  A    between atoms: _396  and  _399
REMARK  167  A    between atoms: _399  and  _400
REMARK  168  A    between atoms: _400  and  _401
REMARK  169  A    between atoms: _401  and  _402
REMARK  170  A    between atoms: _402  and  _403
REMARK  171  A    between atoms: _407  and  _409
REMARK  172  A    between atoms: _409  and  _410
REMARK  173  A    between atoms: _409  and  _412
REMARK  174  A    between atoms: _412  and  _413
REMARK  175  A    between atoms: _413  and  _414
REMARK  176  A    between atoms: _416  and  _418
REMARK  177  A    between atoms: _418  and  _419
REMARK  178  A    between atoms: _418  and  _421
REMARK  179  A    between atoms: _421  and  _422
REMARK  180  A    between atoms: _425  and  _427
REMARK  181  A    between atoms: _427  and  _428
REMARK  182  A    between atoms: _430  and  _432
REMARK  183  A    between atoms: _432  and  _433
REMARK  184  A    between atoms: _435  and  _437
REMARK  185  A    between atoms: _437  and  _438
REMARK  186  A    between atoms: _437  and  _440
REMARK  187  A    between atoms: _440  and  _441
REMARK  188  A    between atoms: _444  and  _446
REMARK  189  A    between atoms: _446  and  _447
REMARK  190  A    between atoms: _449  and  _451
REMARK  191  A    between atoms: _451  and  _452
REMARK  192  A    between atoms: _454  and  _456
REMARK  193  A    between atoms: _456  and  _457
REMARK  194  A    between atoms: _456  and  _459
REMARK  195  A    between atoms: _459  and  _460
REMARK  196  A    between atoms: _466  and  _468
REMARK  197  A    between atoms: _468  and  _469
REMARK  198  A    between atoms: _468  and  _471
REMARK  199  A    between atoms: _471  and  _472
REMARK  200  A    between atoms: _475  and  _477
REMARK  201  A    between atoms: _477  and  _478
REMARK  202  A    between atoms: _477  and  _480
REMARK  203  A    between atoms: _483  and  _485
REMARK  204  A    between atoms: _485  and  _486
REMARK  205  A    between atoms: _485  and  _488
REMARK  206  A    between atoms: _488  and  _489
REMARK  207  A    between atoms: _492  and  _494
REMARK  208  A    between atoms: _494  and  _495
REMARK  209  A    between atoms: _494  and  _497
REMARK  210  A    between atoms: _495  and  _496
REMARK  211  A    between atoms: _495  and  _501
REMARK  212  A    between atoms: _497  and  _498
REMARK  213  A    between atoms: _502  and  _503
REMARK  214  A    between atoms: _508  and  _510
REMARK  215  A    between atoms: _510  and  _511
REMARK  216  A    between atoms: _510  and  _513
REMARK  217  A    between atoms: _513  and  _514
REMARK  218  A    between atoms: _517  and  _519
REMARK  219  A    between atoms: _519  and  _520
REMARK  220  A    between atoms: _519  and  _522
REMARK  221  A    between atoms: _522  and  _523
REMARK  222  A    between atoms: _528  and  _530
REMARK  223  A    between atoms: _530  and  _531
REMARK  224  A    between atoms: _530  and  _533
REMARK  225  A    between atoms: _536  and  _538
REMARK  226  A    between atoms: _538  and  _539
REMARK  227  A    between atoms: _538  and  _541
REMARK  228  A    between atoms: _541  and  _542
REMARK  229  A    between atoms: _545  and  _547
REMARK  230  A    between atoms: _547  and  _548
REMARK  231  A    between atoms: _550  and  _552
REMARK  232  A    between atoms: _552  and  _553
REMARK  233  A    between atoms: _552  and  _555
REMARK  234  A    between atoms: _555  and  _556
REMARK  235  A    between atoms: _556  and  _557
REMARK  236  A    between atoms: _557  and  _558
REMARK                            x       y       z     vdW  Elec       q    Type
REMARK                         _______ _______ _______ _____ _____    ______ ____
ROOT
ATOM      1  O   HOH     1      20.351  25.055  12.879  0.00  0.00    +0.000 OA
ENDROOT
TORSDOF 0
REMARK  Name = ../refined-set-2016/4cp7/4cp7_pocket.pdb
REMARK  236 active torsions:
REMARK  status: ('A' for Active; 'I' for Inactive)
REMARK    1  A    between atoms: _1  and  _3
REMARK    2  A    between atoms: _3  and  _4
REMARK    3  A    between atoms: _3  and  _6
REMARK    4  A    between atoms: _6  and  _7
REMARK    5  A    between atoms: _7  and  _8
REMARK    6  A    between atoms: _8  and  _9
REMARK    7  A    between atoms: _18  and  _20
REMARK    8  A    between atoms: _20  and  _21
REMARK    9  A    between atoms: _20  and  _23
REMARK   10  A    between atoms: _23  and  _24
REMARK   11  A    between atoms: _27  and  _29
REMARK   12  A    between atoms: _29  and  _30
REMARK   13  A    between atoms: _29  and  _32
REMARK   14  A    between atoms: _32  and  _33
REMARK   15  A    between atoms: _36  and  _38
REMARK   16  A    between atoms: _38  and  _39
REMARK   17  A    between atoms: _38  and  _41
REMARK   18  A    between atoms: _41  and  _42
REMARK   19  A    between atoms: _45  and  _47
REMARK   20  A    between atoms: _47  and  _48
REMARK   21  A    between atoms: _47  and  _50
REMARK   22  A    between atoms: _50  and  _51
REMARK   23  A    between atoms: _54  and  _56
REMARK   24  A    between atoms: _56  and  _57
REMARK   25  A    between atoms: _59  and  _61
REMARK   26  A    between atoms: _61  and  _62
REMARK   27  A    between atoms: _65  and  _67
REMARK   28  A    between atoms: _67  and  _68
REMARK   29  A    between atoms: _67  and  _70
REMARK   30  A    between atoms: _70  and  _71
REMARK   31  A    between atoms: _74  and  _76
REMARK   32  A    between atoms: _76  and  _77
REMARK   33  A    between atoms: _76  and  _79
REMARK   34  A    between atoms: _79  and  _80
REMARK   35  A    between atoms: _83  and  _85
REMARK   36  A    between atoms: _85  and  _86
REMARK   37  A    between atoms: _85  and  _88
REMARK   38  A    between atoms: _88  and  _89
REMARK   39  A    between atoms: _92  and  _94
REMARK   40  A    between atoms: _94  and  _95
REMARK   41  A    between atoms: _94  and  _97
REMARK   42  A    between atoms: _100  and  _102
REMARK   43  A    between atoms: _102  and  _103
REMARK   44  A    between atoms: _102  and  _105
REMARK   45  A    between atoms: _105  and  _106
REMARK   46  A    between atoms: _106  and  _107
REMARK   47  A    between atoms: _107  and  _108
REMARK   48  A    between atoms: _108  and  _109
REMARK   49  A    between atoms: _113  and  _115
REMARK   50  A    between atoms: _115  and  _116
REMARK   51  A    between atoms: _115  and  _118
REMARK   52  A    between atoms: _118  and  _119
REMARK   53  A    between atoms: _119  and  _120
REMARK   54  A    between atoms: _122  and  _124
REMARK   55  A    between atoms: _124  and  _125
REMARK   56  A    between atoms: _124  and  _127
REMARK   57  A    between atoms: _127  and  _128
REMARK   58  A    between atoms: _131  and  _133
REMARK   59  A    between atoms: _133  and  _134
REMARK   60  A    between atoms: _136  and  _138
REMARK   61  A    between atoms: _138  and  _139
REMARK   62  A    between atoms: _141  and  _143
REMARK   63  A    between atoms: _143  and  _144
REMARK   64  A    between atoms: _143  and  _146
REMARK   65  A    between atoms: _146  and  _147
REMARK   66  A    between atoms: _150  and  _152
REMARK   67  A    between atoms: _152  and  _153
REMARK   68  A    between atoms: _155  and  _157
REMARK   69  A    between atoms: _157  and  _158
REMARK   70  A    between atoms: _160  and  _162
REMARK   71  A    between atoms: _162  and  _163
REMARK   72  A    between atoms: _162  and  _165
REMARK   73  A    between atoms: _165  and  _166
REMARK   74  A    between atoms: _172  and  _174
REMARK   75  A    between atoms: _174  and  _175
REMARK   76  A    between atoms: _174  and  _177
REMARK   77  A    between atoms: _177  and  _178
REMARK   78  A    between atoms: _181  and  _183
REMARK   79  A    between atoms: _183  and  _184
REMARK   80  A    between atoms: _183  and  _186
REMARK   81  A    between atoms: _186  and  _187
REMARK   82  A    between atoms: _190  and  _192
REMARK   83  A    between atoms: _192  and  _193
REMARK   84  A    between atoms: _192  and  _195
REMARK   85  A    between atoms: _195  and  _196
REMARK   86  A    between atoms: _200  and  _201
REMARK   87  A    between atoms: _206  and  _208
REMARK   88  A    between atoms: _208  and  _209
REMARK   89  A    between atoms: _208  and  _211
REMARK   90  A    between atoms: _211  and  _212
REMARK   91  A    between atoms: _215  and  _217
REMARK   92  A    between atoms: _217  and  _218
REMARK   93  A    between atoms: _217  and  _220
REMARK   94  A    between atoms: _220  and  _221
REMARK   95  A    between atoms: _226  and  _228
REMARK   96  A    between atoms: _228  and  _229
REMARK   97  A    between atoms: _228  and  _231
REMARK   98  A    between atoms: _234  and  _236
REMARK   99  A    between atoms: _236  and  _237
REMARK  100  A    between atoms: _236  and  _239
REMARK  101  A    between atoms: _239  and  _240
REMARK  102  A    between atoms: _243  and  _245
REMARK  103  A    between atoms: _245  and  _246
REMARK  104  A    between atoms: _248  and  _250
REMARK  105  A    between atoms: _250  and  _251
REMARK  106  A    between atoms: _250  and  _253
REMARK  107  A    between atoms: _253  and  _254
REMARK  108  A    between atoms: _254  and  _255
REMARK  109  A    between atoms: _255  and  _256
REMARK  110  A    between atoms: _265  and  _267
REMARK  111  A    between atoms: _267  and  _268
REMARK  112  A    between atoms: _267  and  _270
REMARK  113  A    between atoms: _270  and  _271
REMARK  114  A    between atoms: _276  and  _278
REMARK  115  A    between atoms: _278  and  _279
REMARK  116  A    between atoms: _278  and  _281
REMARK  117  A    between atoms: _281  and  _282
REMARK  118  A    between atoms: _282  and  _283
REMARK  119  A    between atoms: _283  and  _284
REMARK  120  A    between atoms: _293  and  _295
REMARK  121  A    between atoms: _295  and  _296
REMARK  122  A    between atoms: _295  and  _298
REMARK  123  A    between atoms: _298  and  _299
REMARK  124  A    between atoms: _302  and  _304
REMARK  125  A    between atoms: _304  and  _305
REMARK  126  A    between atoms: _304  and  _307
REMARK  127  A    between atoms: _307  and  _308
REMARK  128  A    between atoms: _311  and  _313
REMARK  129  A    between atoms: _313  and  _314
REMARK  130  A    between atoms: _313  and  _316
REMARK  131  A    between atoms: _316  and  _317
REMARK  132  A    between atoms: _320  and  _322
REMARK  133  A    between atoms: _322  and  _323
REMARK  134  A    between atoms: _322  and  _325
REMARK  135  A    between atoms: _325  and  _326
REMARK  136  A    between atoms: _329  and  _331
REMARK  137  A    between atoms: _331  and  _332
REMARK  138  A    between atoms: _331  and  _334
REMARK  139  A    between atoms: _334  and  _335
REMARK  140  A    between atoms: _338  and  _340
REMARK  141  A    between atoms: _340  and  _341
REMARK  142  A    between atoms: _343  and  _345
REMARK  143  A    between atoms: _345  and  _346
REMARK  144  A    between atoms: _349  and  _351
REMARK  145  A    between atoms: _351  and  _352
REMARK  146  A    between atoms: _351  and  _354
REMARK  147  A    between atoms: _354  and  _355
REMARK  148  A    between atoms: _358  and  _360
REMARK  149  A    between atoms: _360  and  _361
REMARK  150  A    between atoms: _360  and  _363
REMARK  151  A    between atoms: _363  and  _364
REMARK  152  A    between atoms: _367  and  _369
REMARK  153  A    between atoms: _369  and  _370
REMARK  154  A    between atoms: _369  and  _372
REMARK  155  A    between atoms: _372  and  _373
REMARK  156  A    between atoms: _376  and  _378
REMARK  157  A    between atoms: _378  and  _379
REMARK  158  A    between atoms: _378  and  _381
REMARK  159  A    between atoms: _384  and  _386
REMARK  160  A    between atoms: _386  and  _387
REMARK  161  A    between atoms: _386  and  _389
REMARK  162  A    between atoms: _389  and  _390
REMARK  163  A    between atoms: _390  and  _391
REMARK  164  A    between atoms: _394  and  _396
REMARK  165  A    between atoms: _396  and  _397
REMARK  166  A    between atoms: _396  and  _399
REMARK  167  A    between atoms: _399  and  _400
REMARK  168  A    between atoms: _400  and  _401
REMARK  169  A    between atoms: _401  and  _402
REMARK  170  A    between atoms: _402  and  _403
REMARK  171  A    between atoms: _407  and  _409
REMARK  172  A    between atoms: _409  and  _410
REMARK  173  A    between atoms: _409  and  _412
REMARK  174  A    between atoms: _412  and  _413
REMARK  175  A    between atoms: _413  and  _414
REMARK  176  A    between atoms: _416  and  _418
REMARK  177  A    between atoms: _418  and  _419
REMARK  178  A    between atoms: _418  and  _421
REMARK  179  A    between atoms: _421  and  _422
REMARK  180  A    between atoms: _425  and  _427
REMARK  181  A    between atoms: _427  and  _428
REMARK  182  A    between atoms: _430  and  _432
REMARK  183  A    between atoms: _432  and  _433
REMARK  184  A    between atoms: _435  and  _437
REMARK  185  A    between atoms: _437  and  _438
REMARK  186  A    between atoms: _437  and  _440
REMARK  187  A    between atoms: _440  and  _441
REMARK  188  A    between atoms: _444  and  _446
REMARK  189  A    between atoms: _446  and  _447
REMARK  190  A    between atoms: _449  and  _451
REMARK  191  A    between atoms: _451  and  _452
REMARK  192  A    between atoms: _454  and  _456
REMARK  193  A    between atoms: _456  and  _457
REMARK  194  A    between atoms: _456  and  _459
REMARK  195  A    between atoms: _459  and  _460
REMARK  196  A    between atoms: _466  and  _468
REMARK  197  A    between atoms: _468  and  _469
REMARK  198  A    between atoms: _468  and  _471
REMARK  199  A    between atoms: _471  and  _472
REMARK  200  A    between atoms: _475  and  _477
REMARK  201  A    between atoms: _477  and  _478
REMARK  202  A    between atoms: _477  and  _480
REMARK  203  A    between atoms: _483  and  _485
REMARK  204  A    between atoms: _485  and  _486
REMARK  205  A    between atoms: _485  and  _488
REMARK  206  A    between atoms: _488  and  _489
REMARK  207  A    between atoms: _492  and  _494
REMARK  208  A    between atoms: _494  and  _495
REMARK  209  A    between atoms: _494  and  _497
REMARK  210  A    between atoms: _495  and  _496
REMARK  211  A    between atoms: _495  and  _501
REMARK  212  A    between atoms: _497  and  _498
REMARK  213  A    between atoms: _502  and  _503
REMARK  214  A    between atoms: _508  and  _510
REMARK  215  A    between atoms: _510  and  _511
REMARK  216  A    between atoms: _510  and  _513
REMARK  217  A    between atoms: _513  and  _514
REMARK  218  A    between atoms: _517  and  _519
REMARK  219  A    between atoms: _519  and  _520
REMARK  220  A    between atoms: _519  and  _522
REMARK  221  A    between atoms: _522  and  _523
REMARK  222  A    between atoms: _528  and  _530
REMARK  223  A    between atoms: _530  and  _531
REMARK  224  A    between atoms: _530  and  _533
REMARK  225  A    between atoms: _536  and  _538
REMARK  226  A    between atoms: _538  and  _539
REMARK  227  A    between atoms: _538  and  _541
REMARK  228  A    between atoms: _541  and  _542
REMARK  229  A    between atoms: _545  and  _547
REMARK  230  A    between atoms: _547  and  _548
REMARK  231  A    between atoms: _550  and  _552
REMARK  232  A    between atoms: _552  and  _553
REMARK  233  A    between atoms: _552  and  _555
REMARK  234  A    between atoms: _555  and  _556
REMARK  235  A    between atoms: _556  and  _557
REMARK  236  A    between atoms: _557  and  _558
REMARK                            x       y       z     vdW  Elec       q    Type
REMARK                         _______ _______ _______ _____ _____    ______ ____
ROOT
ATOM      1  O   HOH     1      10.687  30.858   1.668  0.00  0.00    +0.000 OA
ENDROOT
TORSDOF 0
REMARK  Name = ../refined-set-2016/4cp7/4cp7_pocket.pdb
REMARK  236 active torsions:
REMARK  status: ('A' for Active; 'I' for Inactive)
REMARK    1  A    between atoms: _1  and  _3
REMARK    2  A    between atoms: _3  and  _4
REMARK    3  A    between atoms: _3  and  _6
REMARK    4  A    between atoms: _6  and  _7
REMARK    5  A    between atoms: _7  and  _8
REMARK    6  A    between atoms: _8  and  _9
REMARK    7  A    between atoms: _18  and  _20
REMARK    8  A    between atoms: _20  and  _21
REMARK    9  A    between atoms: _20  and  _23
REMARK   10  A    between atoms: _23  and  _24
REMARK   11  A    between atoms: _27  and  _29
REMARK   12  A    between atoms: _29  and  _30
REMARK   13  A    between atoms: _29  and  _32
REMARK   14  A    between atoms: _32  and  _33
REMARK   15  A    between atoms: _36  and  _38
REMARK   16  A    between atoms: _38  and  _39
REMARK   17  A    between atoms: _38  and  _41
REMARK   18  A    between atoms: _41  and  _42
REMARK   19  A    between atoms: _45  and  _47
REMARK   20  A    between atoms: _47  and  _48
REMARK   21  A    between atoms: _47  and  _50
REMARK   22  A    between atoms: _50  and  _51
REMARK   23  A    between atoms: _54  and  _56
REMARK   24  A    between atoms: _56  and  _57
REMARK   25  A    between atoms: _59  and  _61
REMARK   26  A    between atoms: _61  and  _62
REMARK   27  A    between atoms: _65  and  _67
REMARK   28  A    between atoms: _67  and  _68
REMARK   29  A    between atoms: _67  and  _70
REMARK   30  A    between atoms: _70  and  _71
REMARK   31  A    between atoms: _74  and  _76
REMARK   32  A    between atoms: _76  and  _77
REMARK   33  A    between atoms: _76  and  _79
REMARK   34  A    between atoms: _79  and  _80
REMARK   35  A    between atoms: _83  and  _85
REMARK   36  A    between atoms: _85  and  _86
REMARK   37  A    between atoms: _85  and  _88
REMARK   38  A    between atoms: _88  and  _89
REMARK   39  A    between atoms: _92  and  _94
REMARK   40  A    between atoms: _94  and  _95
REMARK   41  A    between atoms: _94  and  _97
REMARK   42  A    between atoms: _100  and  _102
REMARK   43  A    between atoms: _102  and  _103
REMARK   44  A    between atoms: _102  and  _105
REMARK   45  A    between atoms: _105  and  _106
REMARK   46  A    between atoms: _106  and  _107
REMARK   47  A    between atoms: _107  and  _108
REMARK   48  A    between atoms: _108  and  _109
REMARK   49  A    between atoms: _113  and  _115
REMARK   50  A    between atoms: _115  and  _116
REMARK   51  A    between atoms: _115  and  _118
REMARK   52  A    between atoms: _118  and  _119
REMARK   53  A    between atoms: _119  and  _120
REMARK   54  A    between atoms: _122  and  _124
REMARK   55  A    between atoms: _124  and  _125
REMARK   56  A    between atoms: _124  and  _127
REMARK   57  A    between atoms: _127  and  _128
REMARK   58  A    between atoms: _131  and  _133
REMARK   59  A    between atoms: _133  and  _134
REMARK   60  A    between atoms: _136  and  _138
REMARK   61  A    between atoms: _138  and  _139
REMARK   62  A    between atoms: _141  and  _143
REMARK   63  A    between atoms: _143  and  _144
REMARK   64  A    between atoms: _143  and  _146
REMARK   65  A    between atoms: _146  and  _147
REMARK   66  A    between atoms: _150  and  _152
REMARK   67  A    between atoms: _152  and  _153
REMARK   68  A    between atoms: _155  and  _157
REMARK   69  A    between atoms: _157  and  _158
REMARK   70  A    between atoms: _160  and  _162
REMARK   71  A    between atoms: _162  and  _163
REMARK   72  A    between atoms: _162  and  _165
REMARK   73  A    between atoms: _165  and  _166
REMARK   74  A    between atoms: _172  and  _174
REMARK   75  A    between atoms: _174  and  _175
REMARK   76  A    between atoms: _174  and  _177
REMARK   77  A    between atoms: _177  and  _178
REMARK   78  A    between atoms: _181  and  _183
REMARK   79  A    between atoms: _183  and  _184
REMARK   80  A    between atoms: _183  and  _186
REMARK   81  A    between atoms: _186  and  _187
REMARK   82  A    between atoms: _190  and  _192
REMARK   83  A    between atoms: _192  and  _193
REMARK   84  A    between atoms: _192  and  _195
REMARK   85  A    between atoms: _195  and  _196
REMARK   86  A    between atoms: _200  and  _201
REMARK   87  A    between atoms: _206  and  _208
REMARK   88  A    between atoms: _208  and  _209
REMARK   89  A    between atoms: _208  and  _211
REMARK   90  A    between atoms: _211  and  _212
REMARK   91  A    between atoms: _215  and  _217
REMARK   92  A    between atoms: _217  and  _218
REMARK   93  A    between atoms: _217  and  _220
REMARK   94  A    between atoms: _220  and  _221
REMARK   95  A    between atoms: _226  and  _228
REMARK   96  A    between atoms: _228  and  _229
REMARK   97  A    between atoms: _228  and  _231
REMARK   98  A    between atoms: _234  and  _236
REMARK   99  A    between atoms: _236  and  _237
REMARK  100  A    between atoms: _236  and  _239
REMARK  101  A    between atoms: _239  and  _240
REMARK  102  A    between atoms: _243  and  _245
REMARK  103  A    between atoms: _245  and  _246
REMARK  104  A    between atoms: _248  and  _250
REMARK  105  A    between atoms: _250  and  _251
REMARK  106  A    between atoms: _250  and  _253
REMARK  107  A    between atoms: _253  and  _254
REMARK  108  A    between atoms: _254  and  _255
REMARK  109  A    between atoms: _255  and  _256
REMARK  110  A    between atoms: _265  and  _267
REMARK  111  A    between atoms: _267  and  _268
REMARK  112  A    between atoms: _267  and  _270
REMARK  113  A    between atoms: _270  and  _271
REMARK  114  A    between atoms: _276  and  _278
REMARK  115  A    between atoms: _278  and  _279
REMARK  116  A    between atoms: _278  and  _281
REMARK  117  A    between atoms: _281  and  _282
REMARK  118  A    between atoms: _282  and  _283
REMARK  119  A    between atoms: _283  and  _284
REMARK  120  A    between atoms: _293  and  _295
REMARK  121  A    between atoms: _295  and  _296
REMARK  122  A    between atoms: _295  and  _298
REMARK  123  A    between atoms: _298  and  _299
REMARK  124  A    between atoms: _302  and  _304
REMARK  125  A    between atoms: _304  and  _305
REMARK  126  A    between atoms: _304  and  _307
REMARK  127  A    between atoms: _307  and  _308
REMARK  128  A    between atoms: _311  and  _313
REMARK  129  A    between atoms: _313  and  _314
REMARK  130  A    between atoms: _313  and  _316
REMARK  131  A    between atoms: _316  and  _317
REMARK  132  A    between atoms: _320  and  _322
REMARK  133  A    between atoms: _322  and  _323
REMARK  134  A    between atoms: _322  and  _325
REMARK  135  A    between atoms: _325  and  _326
REMARK  136  A    between atoms: _329  and  _331
REMARK  137  A    between atoms: _331  and  _332
REMARK  138  A    between atoms: _331  and  _334
REMARK  139  A    between atoms: _334  and  _335
REMARK  140  A    between atoms: _338  and  _340
REMARK  141  A    between atoms: _340  and  _341
REMARK  142  A    between atoms: _343  and  _345
REMARK  143  A    between atoms: _345  and  _346
REMARK  144  A    between atoms: _349  and  _351
REMARK  145  A    between atoms: _351  and  _352
REMARK  146  A    between atoms: _351  and  _354
REMARK  147  A    between atoms: _354  and  _355
REMARK  148  A    between atoms: _358  and  _360
REMARK  149  A    between atoms: _360  and  _361
REMARK  150  A    between atoms: _360  and  _363
REMARK  151  A    between atoms: _363  and  _364
REMARK  152  A    between atoms: _367  and  _369
REMARK  153  A    between atoms: _369  and  _370
REMARK  154  A    between atoms: _369  and  _372
REMARK  155  A    between atoms: _372  and  _373
REMARK  156  A    between atoms: _376  and  _378
REMARK  157  A    between atoms: _378  and  _379
REMARK  158  A    between atoms: _378  and  _381
REMARK  159  A    between atoms: _384  and  _386
REMARK  160  A    between atoms: _386  and  _387
REMARK  161  A    between atoms: _386  and  _389
REMARK  162  A    between atoms: _389  and  _390
REMARK  163  A    between atoms: _390  and  _391
REMARK  164  A    between atoms: _394  and  _396
REMARK  165  A    between atoms: _396  and  _397
REMARK  166  A    between atoms: _396  and  _399
REMARK  167  A    between atoms: _399  and  _400
REMARK  168  A    between atoms: _400  and  _401
REMARK  169  A    between atoms: _401  and  _402
REMARK  170  A    between atoms: _402  and  _403
REMARK  171  A    between atoms: _407  and  _409
REMARK  172  A    between atoms: _409  and  _410
REMARK  173  A    between atoms: _409  and  _412
REMARK  174  A    between atoms: _412  and  _413
REMARK  175  A    between atoms: _413  and  _414
REMARK  176  A    between atoms: _416  and  _418
REMARK  177  A    between atoms: _418  and  _419
REMARK  178  A    between atoms: _418  and  _421
REMARK  179  A    between atoms: _421  and  _422
REMARK  180  A    between atoms: _425  and  _427
REMARK  181  A    between atoms: _427  and  _428
REMARK  182  A    between atoms: _430  and  _432
REMARK  183  A    between atoms: _432  and  _433
REMARK  184  A    between atoms: _435  and  _437
REMARK  185  A    between atoms: _437  and  _438
REMARK  186  A    between atoms: _437  and  _440
REMARK  187  A    between atoms: _440  and  _441
REMARK  188  A    between atoms: _444  and  _446
REMARK  189  A    between atoms: _446  and  _447
REMARK  190  A    between atoms: _449  and  _451
REMARK  191  A    between atoms: _451  and  _452
REMARK  192  A    between atoms: _454  and  _456
REMARK  193  A    between atoms: _456  and  _457
REMARK  194  A    between atoms: _456  and  _459
REMARK  195  A    between atoms: _459  and  _460
REMARK  196  A    between atoms: _466  and  _468
REMARK  197  A    between atoms: _468  and  _469
REMARK  198  A    between atoms: _468  and  _471
REMARK  199  A    between atoms: _471  and  _472
REMARK  200  A    between atoms: _475  and  _477
REMARK  201  A    between atoms: _477  and  _478
REMARK  202  A    between atoms: _477  and  _480
REMARK  203  A    between atoms: _483  and  _485
REMARK  204  A    between atoms: _485  and  _486
REMARK  205  A    between atoms: _485  and  _488
REMARK  206  A    between atoms: _488  and  _489
REMARK  207  A    between atoms: _492  and  _494
REMARK  208  A    between atoms: _494  and  _495
REMARK  209  A    between atoms: _494  and  _497
REMARK  210  A    between atoms: _495  and  _496
REMARK  211  A    between atoms: _495  and  _501
REMARK  212  A    between atoms: _497  and  _498
REMARK  213  A    between atoms: _502  and  _503
REMARK  214  A    between atoms: _508  and  _510
REMARK  215  A    between atoms: _510  and  _511
REMARK  216  A    between atoms: _510  and  _513
REMARK  217  A    between atoms: _513  and  _514
REMARK  218  A    between atoms: _517  and  _519
REMARK  219  A    between atoms: _519  and  _520
REMARK  220  A    between atoms: _519  and  _522
REMARK  221  A    between atoms: _522  and  _523
REMARK  222  A    between atoms: _528  and  _530
REMARK  223  A    between atoms: _530  and  _531
REMARK  224  A    between atoms: _530  and  _533
REMARK  225  A    between atoms: _536  and  _538
REMARK  226  A    between atoms: _538  and  _539
REMARK  227  A    between atoms: _538  and  _541
REMARK  228  A    between atoms: _541  and  _542
REMARK  229  A    between atoms: _545  and  _547
REMARK  230  A    between atoms: _547  and  _548
REMARK  231  A    between atoms: _550  and  _552
REMARK  232  A    between atoms: _552  and  _553
REMARK  233  A    between atoms: _552  and  _555
REMARK  234  A    between atoms: _555  and  _556
REMARK  235  A    between atoms: _556  and  _557
REMARK  236  A    between atoms: _557  and  _558
REMARK                            x       y       z     vdW  Elec       q    Type
REMARK                         _______ _______ _______ _____ _____    ______ ____
ROOT
ATOM      1  O   HOH     1       8.906  28.940   2.192  0.00  0.00    +0.000 OA
ENDROOT
TORSDOF 0
REMARK  Name = ../refined-set-2016/4cp7/4cp7_pocket.pdb
REMARK  236 active torsions:
REMARK  status: ('A' for Active; 'I' for Inactive)
REMARK    1  A    between atoms: _1  and  _3
REMARK    2  A    between atoms: _3  and  _4
REMARK    3  A    between atoms: _3  and  _6
REMARK    4  A    between atoms: _6  and  _7
REMARK    5  A    between atoms: _7  and  _8
REMARK    6  A    between atoms: _8  and  _9
REMARK    7  A    between atoms: _18  and  _20
REMARK    8  A    between atoms: _20  and  _21
REMARK    9  A    between atoms: _20  and  _23
REMARK   10  A    between atoms: _23  and  _24
REMARK   11  A    between atoms: _27  and  _29
REMARK   12  A    between atoms: _29  and  _30
REMARK   13  A    between atoms: _29  and  _32
REMARK   14  A    between atoms: _32  and  _33
REMARK   15  A    between atoms: _36  and  _38
REMARK   16  A    between atoms: _38  and  _39
REMARK   17  A    between atoms: _38  and  _41
REMARK   18  A    between atoms: _41  and  _42
REMARK   19  A    between atoms: _45  and  _47
REMARK   20  A    between atoms: _47  and  _48
REMARK   21  A    between atoms: _47  and  _50
REMARK   22  A    between atoms: _50  and  _51
REMARK   23  A    between atoms: _54  and  _56
REMARK   24  A    between atoms: _56  and  _57
REMARK   25  A    between atoms: _59  and  _61
REMARK   26  A    between atoms: _61  and  _62
REMARK   27  A    between atoms: _65  and  _67
REMARK   28  A    between atoms: _67  and  _68
REMARK   29  A    between atoms: _67  and  _70
REMARK   30  A    between atoms: _70  and  _71
REMARK   31  A    between atoms: _74  and  _76
REMARK   32  A    between atoms: _76  and  _77
REMARK   33  A    between atoms: _76  and  _79
REMARK   34  A    between atoms: _79  and  _80
REMARK   35  A    between atoms: _83  and  _85
REMARK   36  A    between atoms: _85  and  _86
REMARK   37  A    between atoms: _85  and  _88
REMARK   38  A    between atoms: _88  and  _89
REMARK   39  A    between atoms: _92  and  _94
REMARK   40  A    between atoms: _94  and  _95
REMARK   41  A    between atoms: _94  and  _97
REMARK   42  A    between atoms: _100  and  _102
REMARK   43  A    between atoms: _102  and  _103
REMARK   44  A    between atoms: _102  and  _105
REMARK   45  A    between atoms: _105  and  _106
REMARK   46  A    between atoms: _106  and  _107
REMARK   47  A    between atoms: _107  and  _108
REMARK   48  A    between atoms: _108  and  _109
REMARK   49  A    between atoms: _113  and  _115
REMARK   50  A    between atoms: _115  and  _116
REMARK   51  A    between atoms: _115  and  _118
REMARK   52  A    between atoms: _118  and  _119
REMARK   53  A    between atoms: _119  and  _120
REMARK   54  A    between atoms: _122  and  _124
REMARK   55  A    between atoms: _124  and  _125
REMARK   56  A    between atoms: _124  and  _127
REMARK   57  A    between atoms: _127  and  _128
REMARK   58  A    between atoms: _131  and  _133
REMARK   59  A    between atoms: _133  and  _134
REMARK   60  A    between atoms: _136  and  _138
REMARK   61  A    between atoms: _138  and  _139
REMARK   62  A    between atoms: _141  and  _143
REMARK   63  A    between atoms: _143  and  _144
REMARK   64  A    between atoms: _143  and  _146
REMARK   65  A    between atoms: _146  and  _147
REMARK   66  A    between atoms: _150  and  _152
REMARK   67  A    between atoms: _152  and  _153
REMARK   68  A    between atoms: _155  and  _157
REMARK   69  A    between atoms: _157  and  _158
REMARK   70  A    between atoms: _160  and  _162
REMARK   71  A    between atoms: _162  and  _163
REMARK   72  A    between atoms: _162  and  _165
REMARK   73  A    between atoms: _165  and  _166
REMARK   74  A    between atoms: _172  and  _174
REMARK   75  A    between atoms: _174  and  _175
REMARK   76  A    between atoms: _174  and  _177
REMARK   77  A    between atoms: _177  and  _178
REMARK   78  A    between atoms: _181  and  _183
REMARK   79  A    between atoms: _183  and  _184
REMARK   80  A    between atoms: _183  and  _186
REMARK   81  A    between atoms: _186  and  _187
REMARK   82  A    between atoms: _190  and  _192
REMARK   83  A    between atoms: _192  and  _193
REMARK   84  A    between atoms: _192  and  _195
REMARK   85  A    between atoms: _195  and  _196
REMARK   86  A    between atoms: _200  and  _201
REMARK   87  A    between atoms: _206  and  _208
REMARK   88  A    between atoms: _208  and  _209
REMARK   89  A    between atoms: _208  and  _211
REMARK   90  A    between atoms: _211  and  _212
REMARK   91  A    between atoms: _215  and  _217
REMARK   92  A    between atoms: _217  and  _218
REMARK   93  A    between atoms: _217  and  _220
REMARK   94  A    between atoms: _220  and  _221
REMARK   95  A    between atoms: _226  and  _228
REMARK   96  A    between atoms: _228  and  _229
REMARK   97  A    between atoms: _228  and  _231
REMARK   98  A    between atoms: _234  and  _236
REMARK   99  A    between atoms: _236  and  _237
REMARK  100  A    between atoms: _236  and  _239
REMARK  101  A    between atoms: _239  and  _240
REMARK  102  A    between atoms: _243  and  _245
REMARK  103  A    between atoms: _245  and  _246
REMARK  104  A    between atoms: _248  and  _250
REMARK  105  A    between atoms: _250  and  _251
REMARK  106  A    between atoms: _250  and  _253
REMARK  107  A    between atoms: _253  and  _254
REMARK  108  A    between atoms: _254  and  _255
REMARK  109  A    between atoms: _255  and  _256
REMARK  110  A    between atoms: _265  and  _267
REMARK  111  A    between atoms: _267  and  _268
REMARK  112  A    between atoms: _267  and  _270
REMARK  113  A    between atoms: _270  and  _271
REMARK  114  A    between atoms: _276  and  _278
REMARK  115  A    between atoms: _278  and  _279
REMARK  116  A    between atoms: _278  and  _281
REMARK  117  A    between atoms: _281  and  _282
REMARK  118  A    between atoms: _282  and  _283
REMARK  119  A    between atoms: _283  and  _284
REMARK  120  A    between atoms: _293  and  _295
REMARK  121  A    between atoms: _295  and  _296
REMARK  122  A    between atoms: _295  and  _298
REMARK  123  A    between atoms: _298  and  _299
REMARK  124  A    between atoms: _302  and  _304
REMARK  125  A    between atoms: _304  and  _305
REMARK  126  A    between atoms: _304  and  _307
REMARK  127  A    between atoms: _307  and  _308
REMARK  128  A    between atoms: _311  and  _313
REMARK  129  A    between atoms: _313  and  _314
REMARK  130  A    between atoms: _313  and  _316
REMARK  131  A    between atoms: _316  and  _317
REMARK  132  A    between atoms: _320  and  _322
REMARK  133  A    between atoms: _322  and  _323
REMARK  134  A    between atoms: _322  and  _325
REMARK  135  A    between atoms: _325  and  _326
REMARK  136  A    between atoms: _329  and  _331
REMARK  137  A    between atoms: _331  and  _332
REMARK  138  A    between atoms: _331  and  _334
REMARK  139  A    between atoms: _334  and  _335
REMARK  140  A    between atoms: _338  and  _340
REMARK  141  A    between atoms: _340  and  _341
REMARK  142  A    between atoms: _343  and  _345
REMARK  143  A    between atoms: _345  and  _346
REMARK  144  A    between atoms: _349  and  _351
REMARK  145  A    between atoms: _351  and  _352
REMARK  146  A    between atoms: _351  and  _354
REMARK  147  A    between atoms: _354  and  _355
REMARK  148  A    between atoms: _358  and  _360
REMARK  149  A    between atoms: _360  and  _361
REMARK  150  A    between atoms: _360  and  _363
REMARK  151  A    between atoms: _363  and  _364
REMARK  152  A    between atoms: _367  and  _369
REMARK  153  A    between atoms: _369  and  _370
REMARK  154  A    between atoms: _369  and  _372
REMARK  155  A    between atoms: _372  and  _373
REMARK  156  A    between atoms: _376  and  _378
REMARK  157  A    between atoms: _378  and  _379
REMARK  158  A    between atoms: _378  and  _381
REMARK  159  A    between atoms: _384  and  _386
REMARK  160  A    between atoms: _386  and  _387
REMARK  161  A    between atoms: _386  and  _389
REMARK  162  A    between atoms: _389  and  _390
REMARK  163  A    between atoms: _390  and  _391
REMARK  164  A    between atoms: _394  and  _396
REMARK  165  A    between atoms: _396  and  _397
REMARK  166  A    between atoms: _396  and  _399
REMARK  167  A    between atoms: _399  and  _400
REMARK  168  A    between atoms: _400  and  _401
REMARK  169  A    between atoms: _401  and  _402
REMARK  170  A    between atoms: _402  and  _403
REMARK  171  A    between atoms: _407  and  _409
REMARK  172  A    between atoms: _409  and  _410
REMARK  173  A    between atoms: _409  and  _412
REMARK  174  A    between atoms: _412  and  _413
REMARK  175  A    between atoms: _413  and  _414
REMARK  176  A    between atoms: _416  and  _418
REMARK  177  A    between atoms: _418  and  _419
REMARK  178  A    between atoms: _418  and  _421
REMARK  179  A    between atoms: _421  and  _422
REMARK  180  A    between atoms: _425  and  _427
REMARK  181  A    between atoms: _427  and  _428
REMARK  182  A    between atoms: _430  and  _432
REMARK  183  A    between atoms: _432  and  _433
REMARK  184  A    between atoms: _435  and  _437
REMARK  185  A    between atoms: _437  and  _438
REMARK  186  A    between atoms: _437  and  _440
REMARK  187  A    between atoms: _440  and  _441
REMARK  188  A    between atoms: _444  and  _446
REMARK  189  A    between atoms: _446  and  _447
REMARK  190  A    between atoms: _449  and  _451
REMARK  191  A    between atoms: _451  and  _452
REMARK  192  A    between atoms: _454  and  _456
REMARK  193  A    between atoms: _456  and  _457
REMARK  194  A    between atoms: _456  and  _459
REMARK  195  A    between atoms: _459  and  _460
REMARK  196  A    between atoms: _466  and  _468
REMARK  197  A    between atoms: _468  and  _469
REMARK  198  A    between atoms: _468  and  _471
REMARK  199  A    between atoms: _471  and  _472
REMARK  200  A    between atoms: _475  and  _477
REMARK  201  A    between atoms: _477  and  _478
REMARK  202  A    between atoms: _477  and  _480
REMARK  203  A    between atoms: _483  and  _485
REMARK  204  A    between atoms: _485  and  _486
REMARK  205  A    between atoms: _485  and  _488
REMARK  206  A    between atoms: _488  and  _489
REMARK  207  A    between atoms: _492  and  _494
REMARK  208  A    between atoms: _494  and  _495
REMARK  209  A    between atoms: _494  and  _497
REMARK  210  A    between atoms: _495  and  _496
REMARK  211  A    between atoms: _495  and  _501
REMARK  212  A    between atoms: _497  and  _498
REMARK  213  A    between atoms: _502  and  _503
REMARK  214  A    between atoms: _508  and  _510
REMARK  215  A    between atoms: _510  and  _511
REMARK  216  A    between atoms: _510  and  _513
REMARK  217  A    between atoms: _513  and  _514
REMARK  218  A    between atoms: _517  and  _519
REMARK  219  A    between atoms: _519  and  _520
REMARK  220  A    between atoms: _519  and  _522
REMARK  221  A    between atoms: _522  and  _523
REMARK  222  A    between atoms: _528  and  _530
REMARK  223  A    between atoms: _530  and  _531
REMARK  224  A    between atoms: _530  and  _533
REMARK  225  A    between atoms: _536  and  _538
REMARK  226  A    between atoms: _538  and  _539
REMARK  227  A    between atoms: _538  and  _541
REMARK  228  A    between atoms: _541  and  _542
REMARK  229  A    between atoms: _545  and  _547
REMARK  230  A    between atoms: _547  and  _548
REMARK  231  A    between atoms: _550  and  _552
REMARK  232  A    between atoms: _552  and  _553
REMARK  233  A    between atoms: _552  and  _555
REMARK  234  A    between atoms: _555  and  _556
REMARK  235  A    between atoms: _556  and  _557
REMARK  236  A    between atoms: _557  and  _558
REMARK                            x       y       z     vdW  Elec       q    Type
REMARK                         _______ _______ _______ _____ _____    ______ ____
ROOT
ATOM      1  O   HOH     1       8.180  35.740   5.685  0.00  0.00    +0.000 OA
ENDROOT
TORSDOF 0
REMARK  Name = ../refined-set-2016/4cp7/4cp7_pocket.pdb
REMARK  236 active torsions:
REMARK  status: ('A' for Active; 'I' for Inactive)
REMARK    1  A    between atoms: _1  and  _3
REMARK    2  A    between atoms: _3  and  _4
REMARK    3  A    between atoms: _3  and  _6
REMARK    4  A    between atoms: _6  and  _7
REMARK    5  A    between atoms: _7  and  _8
REMARK    6  A    between atoms: _8  and  _9
REMARK    7  A    between atoms: _18  and  _20
REMARK    8  A    between atoms: _20  and  _21
REMARK    9  A    between atoms: _20  and  _23
REMARK   10  A    between atoms: _23  and  _24
REMARK   11  A    between atoms: _27  and  _29
REMARK   12  A    between atoms: _29  and  _30
REMARK   13  A    between atoms: _29  and  _32
REMARK   14  A    between atoms: _32  and  _33
REMARK   15  A    between atoms: _36  and  _38
REMARK   16  A    between atoms: _38  and  _39
REMARK   17  A    between atoms: _38  and  _41
REMARK   18  A    between atoms: _41  and  _42
REMARK   19  A    between atoms: _45  and  _47
REMARK   20  A    between atoms: _47  and  _48
REMARK   21  A    between atoms: _47  and  _50
REMARK   22  A    between atoms: _50  and  _51
REMARK   23  A    between atoms: _54  and  _56
REMARK   24  A    between atoms: _56  and  _57
REMARK   25  A    between atoms: _59  and  _61
REMARK   26  A    between atoms: _61  and  _62
REMARK   27  A    between atoms: _65  and  _67
REMARK   28  A    between atoms: _67  and  _68
REMARK   29  A    between atoms: _67  and  _70
REMARK   30  A    between atoms: _70  and  _71
REMARK   31  A    between atoms: _74  and  _76
REMARK   32  A    between atoms: _76  and  _77
REMARK   33  A    between atoms: _76  and  _79
REMARK   34  A    between atoms: _79  and  _80
REMARK   35  A    between atoms: _83  and  _85
REMARK   36  A    between atoms: _85  and  _86
REMARK   37  A    between atoms: _85  and  _88
REMARK   38  A    between atoms: _88  and  _89
REMARK   39  A    between atoms: _92  and  _94
REMARK   40  A    between atoms: _94  and  _95
REMARK   41  A    between atoms: _94  and  _97
REMARK   42  A    between atoms: _100  and  _102
REMARK   43  A    between atoms: _102  and  _103
REMARK   44  A    between atoms: _102  and  _105
REMARK   45  A    between atoms: _105  and  _106
REMARK   46  A    between atoms: _106  and  _107
REMARK   47  A    between atoms: _107  and  _108
REMARK   48  A    between atoms: _108  and  _109
REMARK   49  A    between atoms: _113  and  _115
REMARK   50  A    between atoms: _115  and  _116
REMARK   51  A    between atoms: _115  and  _118
REMARK   52  A    between atoms: _118  and  _119
REMARK   53  A    between atoms: _119  and  _120
REMARK   54  A    between atoms: _122  and  _124
REMARK   55  A    between atoms: _124  and  _125
REMARK   56  A    between atoms: _124  and  _127
REMARK   57  A    between atoms: _127  and  _128
REMARK   58  A    between atoms: _131  and  _133
REMARK   59  A    between atoms: _133  and  _134
REMARK   60  A    between atoms: _136  and  _138
REMARK   61  A    between atoms: _138  and  _139
REMARK   62  A    between atoms: _141  and  _143
REMARK   63  A    between atoms: _143  and  _144
REMARK   64  A    between atoms: _143  and  _146
REMARK   65  A    between atoms: _146  and  _147
REMARK   66  A    between atoms: _150  and  _152
REMARK   67  A    between atoms: _152  and  _153
REMARK   68  A    between atoms: _155  and  _157
REMARK   69  A    between atoms: _157  and  _158
REMARK   70  A    between atoms: _160  and  _162
REMARK   71  A    between atoms: _162  and  _163
REMARK   72  A    between atoms: _162  and  _165
REMARK   73  A    between atoms: _165  and  _166
REMARK   74  A    between atoms: _172  and  _174
REMARK   75  A    between atoms: _174  and  _175
REMARK   76  A    between atoms: _174  and  _177
REMARK   77  A    between atoms: _177  and  _178
REMARK   78  A    between atoms: _181  and  _183
REMARK   79  A    between atoms: _183  and  _184
REMARK   80  A    between atoms: _183  and  _186
REMARK   81  A    between atoms: _186  and  _187
REMARK   82  A    between atoms: _190  and  _192
REMARK   83  A    between atoms: _192  and  _193
REMARK   84  A    between atoms: _192  and  _195
REMARK   85  A    between atoms: _195  and  _196
REMARK   86  A    between atoms: _200  and  _201
REMARK   87  A    between atoms: _206  and  _208
REMARK   88  A    between atoms: _208  and  _209
REMARK   89  A    between atoms: _208  and  _211
REMARK   90  A    between atoms: _211  and  _212
REMARK   91  A    between atoms: _215  and  _217
REMARK   92  A    between atoms: _217  and  _218
REMARK   93  A    between atoms: _217  and  _220
REMARK   94  A    between atoms: _220  and  _221
REMARK   95  A    between atoms: _226  and  _228
REMARK   96  A    between atoms: _228  and  _229
REMARK   97  A    between atoms: _228  and  _231
REMARK   98  A    between atoms: _234  and  _236
REMARK   99  A    between atoms: _236  and  _237
REMARK  100  A    between atoms: _236  and  _239
REMARK  101  A    between atoms: _239  and  _240
REMARK  102  A    between atoms: _243  and  _245
REMARK  103  A    between atoms: _245  and  _246
REMARK  104  A    between atoms: _248  and  _250
REMARK  105  A    between atoms: _250  and  _251
REMARK  106  A    between atoms: _250  and  _253
REMARK  107  A    between atoms: _253  and  _254
REMARK  108  A    between atoms: _254  and  _255
REMARK  109  A    between atoms: _255  and  _256
REMARK  110  A    between atoms: _265  and  _267
REMARK  111  A    between atoms: _267  and  _268
REMARK  112  A    between atoms: _267  and  _270
REMARK  113  A    between atoms: _270  and  _271
REMARK  114  A    between atoms: _276  and  _278
REMARK  115  A    between atoms: _278  and  _279
REMARK  116  A    between atoms: _278  and  _281
REMARK  117  A    between atoms: _281  and  _282
REMARK  118  A    between atoms: _282  and  _283
REMARK  119  A    between atoms: _283  and  _284
REMARK  120  A    between atoms: _293  and  _295
REMARK  121  A    between atoms: _295  and  _296
REMARK  122  A    between atoms: _295  and  _298
REMARK  123  A    between atoms: _298  and  _299
REMARK  124  A    between atoms: _302  and  _304
REMARK  125  A    between atoms: _304  and  _305
REMARK  126  A    between atoms: _304  and  _307
REMARK  127  A    between atoms: _307  and  _308
REMARK  128  A    between atoms: _311  and  _313
REMARK  129  A    between atoms: _313  and  _314
REMARK  130  A    between atoms: _313  and  _316
REMARK  131  A    between atoms: _316  and  _317
REMARK  132  A    between atoms: _320  and  _322
REMARK  133  A    between atoms: _322  and  _323
REMARK  134  A    between atoms: _322  and  _325
REMARK  135  A    between atoms: _325  and  _326
REMARK  136  A    between atoms: _329  and  _331
REMARK  137  A    between atoms: _331  and  _332
REMARK  138  A    between atoms: _331  and  _334
REMARK  139  A    between atoms: _334  and  _335
REMARK  140  A    between atoms: _338  and  _340
REMARK  141  A    between atoms: _340  and  _341
REMARK  142  A    between atoms: _343  and  _345
REMARK  143  A    between atoms: _345  and  _346
REMARK  144  A    between atoms: _349  and  _351
REMARK  145  A    between atoms: _351  and  _352
REMARK  146  A    between atoms: _351  and  _354
REMARK  147  A    between atoms: _354  and  _355
REMARK  148  A    between atoms: _358  and  _360
REMARK  149  A    between atoms: _360  and  _361
REMARK  150  A    between atoms: _360  and  _363
REMARK  151  A    between atoms: _363  and  _364
REMARK  152  A    between atoms: _367  and  _369
REMARK  153  A    between atoms: _369  and  _370
REMARK  154  A    between atoms: _369  and  _372
REMARK  155  A    between atoms: _372  and  _373
REMARK  156  A    between atoms: _376  and  _378
REMARK  157  A    between atoms: _378  and  _379
REMARK  158  A    between atoms: _378  and  _381
REMARK  159  A    between atoms: _384  and  _386
REMARK  160  A    between atoms: _386  and  _387
REMARK  161  A    between atoms: _386  and  _389
REMARK  162  A    between atoms: _389  and  _390
REMARK  163  A    between atoms: _390  and  _391
REMARK  164  A    between atoms: _394  and  _396
REMARK  165  A    between atoms: _396  and  _397
REMARK  166  A    between atoms: _396  and  _399
REMARK  167  A    between atoms: _399  and  _400
REMARK  168  A    between atoms: _400  and  _401
REMARK  169  A    between atoms: _401  and  _402
REMARK  170  A    between atoms: _402  and  _403
REMARK  171  A    between atoms: _407  and  _409
REMARK  172  A    between atoms: _409  and  _410
REMARK  173  A    between atoms: _409  and  _412
REMARK  174  A    between atoms: _412  and  _413
REMARK  175  A    between atoms: _413  and  _414
REMARK  176  A    between atoms: _416  and  _418
REMARK  177  A    between atoms: _418  and  _419
REMARK  178  A    between atoms: _418  and  _421
REMARK  179  A    between atoms: _421  and  _422
REMARK  180  A    between atoms: _425  and  _427
REMARK  181  A    between atoms: _427  and  _428
REMARK  182  A    between atoms: _430  and  _432
REMARK  183  A    between atoms: _432  and  _433
REMARK  184  A    between atoms: _435  and  _437
REMARK  185  A    between atoms: _437  and  _438
REMARK  186  A    between atoms: _437  and  _440
REMARK  187  A    between atoms: _440  and  _441
REMARK  188  A    between atoms: _444  and  _446
REMARK  189  A    between atoms: _446  and  _447
REMARK  190  A    between atoms: _449  and  _451
REMARK  191  A    between atoms: _451  and  _452
REMARK  192  A    between atoms: _454  and  _456
REMARK  193  A    between atoms: _456  and  _457
REMARK  194  A    between atoms: _456  and  _459
REMARK  195  A    between atoms: _459  and  _460
REMARK  196  A    between atoms: _466  and  _468
REMARK  197  A    between atoms: _468  and  _469
REMARK  198  A    between atoms: _468  and  _471
REMARK  199  A    between atoms: _471  and  _472
REMARK  200  A    between atoms: _475  and  _477
REMARK  201  A    between atoms: _477  and  _478
REMARK  202  A    between atoms: _477  and  _480
REMARK  203  A    between atoms: _483  and  _485
REMARK  204  A    between atoms: _485  and  _486
REMARK  205  A    between atoms: _485  and  _488
REMARK  206  A    between atoms: _488  and  _489
REMARK  207  A    between atoms: _492  and  _494
REMARK  208  A    between atoms: _494  and  _495
REMARK  209  A    between atoms: _494  and  _497
REMARK  210  A    between atoms: _495  and  _496
REMARK  211  A    between atoms: _495  and  _501
REMARK  212  A    between atoms: _497  and  _498
REMARK  213  A    between atoms: _502  and  _503
REMARK  214  A    between atoms: _508  and  _510
REMARK  215  A    between atoms: _510  and  _511
REMARK  216  A    between atoms: _510  and  _513
REMARK  217  A    between atoms: _513  and  _514
REMARK  218  A    between atoms: _517  and  _519
REMARK  219  A    between atoms: _519  and  _520
REMARK  220  A    between atoms: _519  and  _522
REMARK  221  A    between atoms: _522  and  _523
REMARK  222  A    between atoms: _528  and  _530
REMARK  223  A    between atoms: _530  and  _531
REMARK  224  A    between atoms: _530  and  _533
REMARK  225  A    between atoms: _536  and  _538
REMARK  226  A    between atoms: _538  and  _539
REMARK  227  A    between atoms: _538  and  _541
REMARK  228  A    between atoms: _541  and  _542
REMARK  229  A    between atoms: _545  and  _547
REMARK  230  A    between atoms: _547  and  _548
REMARK  231  A    between atoms: _550  and  _552
REMARK  232  A    between atoms: _552  and  _553
REMARK  233  A    between atoms: _552  and  _555
REMARK  234  A    between atoms: _555  and  _556
REMARK  235  A    between atoms: _556  and  _557
REMARK  236  A    between atoms: _557  and  _558
REMARK                            x       y       z     vdW  Elec       q    Type
REMARK                         _______ _______ _______ _____ _____    ______ ____
ROOT
ATOM      1  O   HOH     1       3.601  30.502   6.276  0.00  0.00    +0.000 OA
ENDROOT
TORSDOF 0
REMARK  Name = ../refined-set-2016/4cp7/4cp7_pocket.pdb
REMARK  236 active torsions:
REMARK  status: ('A' for Active; 'I' for Inactive)
REMARK    1  A    between atoms: _1  and  _3
REMARK    2  A    between atoms: _3  and  _4
REMARK    3  A    between atoms: _3  and  _6
REMARK    4  A    between atoms: _6  and  _7
REMARK    5  A    between atoms: _7  and  _8
REMARK    6  A    between atoms: _8  and  _9
REMARK    7  A    between atoms: _18  and  _20
REMARK    8  A    between atoms: _20  and  _21
REMARK    9  A    between atoms: _20  and  _23
REMARK   10  A    between atoms: _23  and  _24
REMARK   11  A    between atoms: _27  and  _29
REMARK   12  A    between atoms: _29  and  _30
REMARK   13  A    between atoms: _29  and  _32
REMARK   14  A    between atoms: _32  and  _33
REMARK   15  A    between atoms: _36  and  _38
REMARK   16  A    between atoms: _38  and  _39
REMARK   17  A    between atoms: _38  and  _41
REMARK   18  A    between atoms: _41  and  _42
REMARK   19  A    between atoms: _45  and  _47
REMARK   20  A    between atoms: _47  and  _48
REMARK   21  A    between atoms: _47  and  _50
REMARK   22  A    between atoms: _50  and  _51
REMARK   23  A    between atoms: _54  and  _56
REMARK   24  A    between atoms: _56  and  _57
REMARK   25  A    between atoms: _59  and  _61
REMARK   26  A    between atoms: _61  and  _62
REMARK   27  A    between atoms: _65  and  _67
REMARK   28  A    between atoms: _67  and  _68
REMARK   29  A    between atoms: _67  and  _70
REMARK   30  A    between atoms: _70  and  _71
REMARK   31  A    between atoms: _74  and  _76
REMARK   32  A    between atoms: _76  and  _77
REMARK   33  A    between atoms: _76  and  _79
REMARK   34  A    between atoms: _79  and  _80
REMARK   35  A    between atoms: _83  and  _85
REMARK   36  A    between atoms: _85  and  _86
REMARK   37  A    between atoms: _85  and  _88
REMARK   38  A    between atoms: _88  and  _89
REMARK   39  A    between atoms: _92  and  _94
REMARK   40  A    between atoms: _94  and  _95
REMARK   41  A    between atoms: _94  and  _97
REMARK   42  A    between atoms: _100  and  _102
REMARK   43  A    between atoms: _102  and  _103
REMARK   44  A    between atoms: _102  and  _105
REMARK   45  A    between atoms: _105  and  _106
REMARK   46  A    between atoms: _106  and  _107
REMARK   47  A    between atoms: _107  and  _108
REMARK   48  A    between atoms: _108  and  _109
REMARK   49  A    between atoms: _113  and  _115
REMARK   50  A    between atoms: _115  and  _116
REMARK   51  A    between atoms: _115  and  _118
REMARK   52  A    between atoms: _118  and  _119
REMARK   53  A    between atoms: _119  and  _120
REMARK   54  A    between atoms: _122  and  _124
REMARK   55  A    between atoms: _124  and  _125
REMARK   56  A    between atoms: _124  and  _127
REMARK   57  A    between atoms: _127  and  _128
REMARK   58  A    between atoms: _131  and  _133
REMARK   59  A    between atoms: _133  and  _134
REMARK   60  A    between atoms: _136  and  _138
REMARK   61  A    between atoms: _138  and  _139
REMARK   62  A    between atoms: _141  and  _143
REMARK   63  A    between atoms: _143  and  _144
REMARK   64  A    between atoms: _143  and  _146
REMARK   65  A    between atoms: _146  and  _147
REMARK   66  A    between atoms: _150  and  _152
REMARK   67  A    between atoms: _152  and  _153
REMARK   68  A    between atoms: _155  and  _157
REMARK   69  A    between atoms: _157  and  _158
REMARK   70  A    between atoms: _160  and  _162
REMARK   71  A    between atoms: _162  and  _163
REMARK   72  A    between atoms: _162  and  _165
REMARK   73  A    between atoms: _165  and  _166
REMARK   74  A    between atoms: _172  and  _174
REMARK   75  A    between atoms: _174  and  _175
REMARK   76  A    between atoms: _174  and  _177
REMARK   77  A    between atoms: _177  and  _178
REMARK   78  A    between atoms: _181  and  _183
REMARK   79  A    between atoms: _183  and  _184
REMARK   80  A    between atoms: _183  and  _186
REMARK   81  A    between atoms: _186  and  _187
REMARK   82  A    between atoms: _190  and  _192
REMARK   83  A    between atoms: _192  and  _193
REMARK   84  A    between atoms: _192  and  _195
REMARK   85  A    between atoms: _195  and  _196
REMARK   86  A    between atoms: _200  and  _201
REMARK   87  A    between atoms: _206  and  _208
REMARK   88  A    between atoms: _208  and  _209
REMARK   89  A    between atoms: _208  and  _211
REMARK   90  A    between atoms: _211  and  _212
REMARK   91  A    between atoms: _215  and  _217
REMARK   92  A    between atoms: _217  and  _218
REMARK   93  A    between atoms: _217  and  _220
REMARK   94  A    between atoms: _220  and  _221
REMARK   95  A    between atoms: _226  and  _228
REMARK   96  A    between atoms: _228  and  _229
REMARK   97  A    between atoms: _228  and  _231
REMARK   98  A    between atoms: _234  and  _236
REMARK   99  A    between atoms: _236  and  _237
REMARK  100  A    between atoms: _236  and  _239
REMARK  101  A    between atoms: _239  and  _240
REMARK  102  A    between atoms: _243  and  _245
REMARK  103  A    between atoms: _245  and  _246
REMARK  104  A    between atoms: _248  and  _250
REMARK  105  A    between atoms: _250  and  _251
REMARK  106  A    between atoms: _250  and  _253
REMARK  107  A    between atoms: _253  and  _254
REMARK  108  A    between atoms: _254  and  _255
REMARK  109  A    between atoms: _255  and  _256
REMARK  110  A    between atoms: _265  and  _267
REMARK  111  A    between atoms: _267  and  _268
REMARK  112  A    between atoms: _267  and  _270
REMARK  113  A    between atoms: _270  and  _271
REMARK  114  A    between atoms: _276  and  _278
REMARK  115  A    between atoms: _278  and  _279
REMARK  116  A    between atoms: _278  and  _281
REMARK  117  A    between atoms: _281  and  _282
REMARK  118  A    between atoms: _282  and  _283
REMARK  119  A    between atoms: _283  and  _284
REMARK  120  A    between atoms: _293  and  _295
REMARK  121  A    between atoms: _295  and  _296
REMARK  122  A    between atoms: _295  and  _298
REMARK  123  A    between atoms: _298  and  _299
REMARK  124  A    between atoms: _302  and  _304
REMARK  125  A    between atoms: _304  and  _305
REMARK  126  A    between atoms: _304  and  _307
REMARK  127  A    between atoms: _307  and  _308
REMARK  128  A    between atoms: _311  and  _313
REMARK  129  A    between atoms: _313  and  _314
REMARK  130  A    between atoms: _313  and  _316
REMARK  131  A    between atoms: _316  and  _317
REMARK  132  A    between atoms: _320  and  _322
REMARK  133  A    between atoms: _322  and  _323
REMARK  134  A    between atoms: _322  and  _325
REMARK  135  A    between atoms: _325  and  _326
REMARK  136  A    between atoms: _329  and  _331
REMARK  137  A    between atoms: _331  and  _332
REMARK  138  A    between atoms: _331  and  _334
REMARK  139  A    between atoms: _334  and  _335
REMARK  140  A    between atoms: _338  and  _340
REMARK  141  A    between atoms: _340  and  _341
REMARK  142  A    between atoms: _343  and  _345
REMARK  143  A    between atoms: _345  and  _346
REMARK  144  A    between atoms: _349  and  _351
REMARK  145  A    between atoms: _351  and  _352
REMARK  146  A    between atoms: _351  and  _354
REMARK  147  A    between atoms: _354  and  _355
REMARK  148  A    between atoms: _358  and  _360
REMARK  149  A    between atoms: _360  and  _361
REMARK  150  A    between atoms: _360  and  _363
REMARK  151  A    between atoms: _363  and  _364
REMARK  152  A    between atoms: _367  and  _369
REMARK  153  A    between atoms: _369  and  _370
REMARK  154  A    between atoms: _369  and  _372
REMARK  155  A    between atoms: _372  and  _373
REMARK  156  A    between atoms: _376  and  _378
REMARK  157  A    between atoms: _378  and  _379
REMARK  158  A    between atoms: _378  and  _381
REMARK  159  A    between atoms: _384  and  _386
REMARK  160  A    between atoms: _386  and  _387
REMARK  161  A    between atoms: _386  and  _389
REMARK  162  A    between atoms: _389  and  _390
REMARK  163  A    between atoms: _390  and  _391
REMARK  164  A    between atoms: _394  and  _396
REMARK  165  A    between atoms: _396  and  _397
REMARK  166  A    between atoms: _396  and  _399
REMARK  167  A    between atoms: _399  and  _400
REMARK  168  A    between atoms: _400  and  _401
REMARK  169  A    between atoms: _401  and  _402
REMARK  170  A    between atoms: _402  and  _403
REMARK  171  A    between atoms: _407  and  _409
REMARK  172  A    between atoms: _409  and  _410
REMARK  173  A    between atoms: _409  and  _412
REMARK  174  A    between atoms: _412  and  _413
REMARK  175  A    between atoms: _413  and  _414
REMARK  176  A    between atoms: _416  and  _418
REMARK  177  A    between atoms: _418  and  _419
REMARK  178  A    between atoms: _418  and  _421
REMARK  179  A    between atoms: _421  and  _422
REMARK  180  A    between atoms: _425  and  _427
REMARK  181  A    between atoms: _427  and  _428
REMARK  182  A    between atoms: _430  and  _432
REMARK  183  A    between atoms: _432  and  _433
REMARK  184  A    between atoms: _435  and  _437
REMARK  185  A    between atoms: _437  and  _438
REMARK  186  A    between atoms: _437  and  _440
REMARK  187  A    between atoms: _440  and  _441
REMARK  188  A    between atoms: _444  and  _446
REMARK  189  A    between atoms: _446  and  _447
REMARK  190  A    between atoms: _449  and  _451
REMARK  191  A    between atoms: _451  and  _452
REMARK  192  A    between atoms: _454  and  _456
REMARK  193  A    between atoms: _456  and  _457
REMARK  194  A    between atoms: _456  and  _459
REMARK  195  A    between atoms: _459  and  _460
REMARK  196  A    between atoms: _466  and  _468
REMARK  197  A    between atoms: _468  and  _469
REMARK  198  A    between atoms: _468  and  _471
REMARK  199  A    between atoms: _471  and  _472
REMARK  200  A    between atoms: _475  and  _477
REMARK  201  A    between atoms: _477  and  _478
REMARK  202  A    between atoms: _477  and  _480
REMARK  203  A    between atoms: _483  and  _485
REMARK  204  A    between atoms: _485  and  _486
REMARK  205  A    between atoms: _485  and  _488
REMARK  206  A    between atoms: _488  and  _489
REMARK  207  A    between atoms: _492  and  _494
REMARK  208  A    between atoms: _494  and  _495
REMARK  209  A    between atoms: _494  and  _497
REMARK  210  A    between atoms: _495  and  _496
REMARK  211  A    between atoms: _495  and  _501
REMARK  212  A    between atoms: _497  and  _498
REMARK  213  A    between atoms: _502  and  _503
REMARK  214  A    between atoms: _508  and  _510
REMARK  215  A    between atoms: _510  and  _511
REMARK  216  A    between atoms: _510  and  _513
REMARK  217  A    between atoms: _513  and  _514
REMARK  218  A    between atoms: _517  and  _519
REMARK  219  A    between atoms: _519  and  _520
REMARK  220  A    between atoms: _519  and  _522
REMARK  221  A    between atoms: _522  and  _523
REMARK  222  A    between atoms: _528  and  _530
REMARK  223  A    between atoms: _530  and  _531
REMARK  224  A    between atoms: _530  and  _533
REMARK  225  A    between atoms: _536  and  _538
REMARK  226  A    between atoms: _538  and  _539
REMARK  227  A    between atoms: _538  and  _541
REMARK  228  A    between atoms: _541  and  _542
REMARK  229  A    between atoms: _545  and  _547
REMARK  230  A    between atoms: _547  and  _548
REMARK  231  A    between atoms: _550  and  _552
REMARK  232  A    between atoms: _552  and  _553
REMARK  233  A    between atoms: _552  and  _555
REMARK  234  A    between atoms: _555  and  _556
REMARK  235  A    between atoms: _556  and  _557
REMARK  236  A    between atoms: _557  and  _558
REMARK                            x       y       z     vdW  Elec       q    Type
REMARK                         _______ _______ _______ _____ _____    ______ ____
ROOT
ATOM      1  O   HOH     1       7.142  34.638  10.338  0.00  0.00    +0.000 OA
ENDROOT
TORSDOF 0
REMARK  Name = ../refined-set-2016/4cp7/4cp7_pocket.pdb
REMARK  236 active torsions:
REMARK  status: ('A' for Active; 'I' for Inactive)
REMARK    1  A    between atoms: _1  and  _3
REMARK    2  A    between atoms: _3  and  _4
REMARK    3  A    between atoms: _3  and  _6
REMARK    4  A    between atoms: _6  and  _7
REMARK    5  A    between atoms: _7  and  _8
REMARK    6  A    between atoms: _8  and  _9
REMARK    7  A    between atoms: _18  and  _20
REMARK    8  A    between atoms: _20  and  _21
REMARK    9  A    between atoms: _20  and  _23
REMARK   10  A    between atoms: _23  and  _24
REMARK   11  A    between atoms: _27  and  _29
REMARK   12  A    between atoms: _29  and  _30
REMARK   13  A    between atoms: _29  and  _32
REMARK   14  A    between atoms: _32  and  _33
REMARK   15  A    between atoms: _36  and  _38
REMARK   16  A    between atoms: _38  and  _39
REMARK   17  A    between atoms: _38  and  _41
REMARK   18  A    between atoms: _41  and  _42
REMARK   19  A    between atoms: _45  and  _47
REMARK   20  A    between atoms: _47  and  _48
REMARK   21  A    between atoms: _47  and  _50
REMARK   22  A    between atoms: _50  and  _51
REMARK   23  A    between atoms: _54  and  _56
REMARK   24  A    between atoms: _56  and  _57
REMARK   25  A    between atoms: _59  and  _61
REMARK   26  A    between atoms: _61  and  _62
REMARK   27  A    between atoms: _65  and  _67
REMARK   28  A    between atoms: _67  and  _68
REMARK   29  A    between atoms: _67  and  _70
REMARK   30  A    between atoms: _70  and  _71
REMARK   31  A    between atoms: _74  and  _76
REMARK   32  A    between atoms: _76  and  _77
REMARK   33  A    between atoms: _76  and  _79
REMARK   34  A    between atoms: _79  and  _80
REMARK   35  A    between atoms: _83  and  _85
REMARK   36  A    between atoms: _85  and  _86
REMARK   37  A    between atoms: _85  and  _88
REMARK   38  A    between atoms: _88  and  _89
REMARK   39  A    between atoms: _92  and  _94
REMARK   40  A    between atoms: _94  and  _95
REMARK   41  A    between atoms: _94  and  _97
REMARK   42  A    between atoms: _100  and  _102
REMARK   43  A    between atoms: _102  and  _103
REMARK   44  A    between atoms: _102  and  _105
REMARK   45  A    between atoms: _105  and  _106
REMARK   46  A    between atoms: _106  and  _107
REMARK   47  A    between atoms: _107  and  _108
REMARK   48  A    between atoms: _108  and  _109
REMARK   49  A    between atoms: _113  and  _115
REMARK   50  A    between atoms: _115  and  _116
REMARK   51  A    between atoms: _115  and  _118
REMARK   52  A    between atoms: _118  and  _119
REMARK   53  A    between atoms: _119  and  _120
REMARK   54  A    between atoms: _122  and  _124
REMARK   55  A    between atoms: _124  and  _125
REMARK   56  A    between atoms: _124  and  _127
REMARK   57  A    between atoms: _127  and  _128
REMARK   58  A    between atoms: _131  and  _133
REMARK   59  A    between atoms: _133  and  _134
REMARK   60  A    between atoms: _136  and  _138
REMARK   61  A    between atoms: _138  and  _139
REMARK   62  A    between atoms: _141  and  _143
REMARK   63  A    between atoms: _143  and  _144
REMARK   64  A    between atoms: _143  and  _146
REMARK   65  A    between atoms: _146  and  _147
REMARK   66  A    between atoms: _150  and  _152
REMARK   67  A    between atoms: _152  and  _153
REMARK   68  A    between atoms: _155  and  _157
REMARK   69  A    between atoms: _157  and  _158
REMARK   70  A    between atoms: _160  and  _162
REMARK   71  A    between atoms: _162  and  _163
REMARK   72  A    between atoms: _162  and  _165
REMARK   73  A    between atoms: _165  and  _166
REMARK   74  A    between atoms: _172  and  _174
REMARK   75  A    between atoms: _174  and  _175
REMARK   76  A    between atoms: _174  and  _177
REMARK   77  A    between atoms: _177  and  _178
REMARK   78  A    between atoms: _181  and  _183
REMARK   79  A    between atoms: _183  and  _184
REMARK   80  A    between atoms: _183  and  _186
REMARK   81  A    between atoms: _186  and  _187
REMARK   82  A    between atoms: _190  and  _192
REMARK   83  A    between atoms: _192  and  _193
REMARK   84  A    between atoms: _192  and  _195
REMARK   85  A    between atoms: _195  and  _196
REMARK   86  A    between atoms: _200  and  _201
REMARK   87  A    between atoms: _206  and  _208
REMARK   88  A    between atoms: _208  and  _209
REMARK   89  A    between atoms: _208  and  _211
REMARK   90  A    between atoms: _211  and  _212
REMARK   91  A    between atoms: _215  and  _217
REMARK   92  A    between atoms: _217  and  _218
REMARK   93  A    between atoms: _217  and  _220
REMARK   94  A    between atoms: _220  and  _221
REMARK   95  A    between atoms: _226  and  _228
REMARK   96  A    between atoms: _228  and  _229
REMARK   97  A    between atoms: _228  and  _231
REMARK   98  A    between atoms: _234  and  _236
REMARK   99  A    between atoms: _236  and  _237
REMARK  100  A    between atoms: _236  and  _239
REMARK  101  A    between atoms: _239  and  _240
REMARK  102  A    between atoms: _243  and  _245
REMARK  103  A    between atoms: _245  and  _246
REMARK  104  A    between atoms: _248  and  _250
REMARK  105  A    between atoms: _250  and  _251
REMARK  106  A    between atoms: _250  and  _253
REMARK  107  A    between atoms: _253  and  _254
REMARK  108  A    between atoms: _254  and  _255
REMARK  109  A    between atoms: _255  and  _256
REMARK  110  A    between atoms: _265  and  _267
REMARK  111  A    between atoms: _267  and  _268
REMARK  112  A    between atoms: _267  and  _270
REMARK  113  A    between atoms: _270  and  _271
REMARK  114  A    between atoms: _276  and  _278
REMARK  115  A    between atoms: _278  and  _279
REMARK  116  A    between atoms: _278  and  _281
REMARK  117  A    between atoms: _281  and  _282
REMARK  118  A    between atoms: _282  and  _283
REMARK  119  A    between atoms: _283  and  _284
REMARK  120  A    between atoms: _293  and  _295
REMARK  121  A    between atoms: _295  and  _296
REMARK  122  A    between atoms: _295  and  _298
REMARK  123  A    between atoms: _298  and  _299
REMARK  124  A    between atoms: _302  and  _304
REMARK  125  A    between atoms: _304  and  _305
REMARK  126  A    between atoms: _304  and  _307
REMARK  127  A    between atoms: _307  and  _308
REMARK  128  A    between atoms: _311  and  _313
REMARK  129  A    between atoms: _313  and  _314
REMARK  130  A    between atoms: _313  and  _316
REMARK  131  A    between atoms: _316  and  _317
REMARK  132  A    between atoms: _320  and  _322
REMARK  133  A    between atoms: _322  and  _323
REMARK  134  A    between atoms: _322  and  _325
REMARK  135  A    between atoms: _325  and  _326
REMARK  136  A    between atoms: _329  and  _331
REMARK  137  A    between atoms: _331  and  _332
REMARK  138  A    between atoms: _331  and  _334
REMARK  139  A    between atoms: _334  and  _335
REMARK  140  A    between atoms: _338  and  _340
REMARK  141  A    between atoms: _340  and  _341
REMARK  142  A    between atoms: _343  and  _345
REMARK  143  A    between atoms: _345  and  _346
REMARK  144  A    between atoms: _349  and  _351
REMARK  145  A    between atoms: _351  and  _352
REMARK  146  A    between atoms: _351  and  _354
REMARK  147  A    between atoms: _354  and  _355
REMARK  148  A    between atoms: _358  and  _360
REMARK  149  A    between atoms: _360  and  _361
REMARK  150  A    between atoms: _360  and  _363
REMARK  151  A    between atoms: _363  and  _364
REMARK  152  A    between atoms: _367  and  _369
REMARK  153  A    between atoms: _369  and  _370
REMARK  154  A    between atoms: _369  and  _372
REMARK  155  A    between atoms: _372  and  _373
REMARK  156  A    between atoms: _376  and  _378
REMARK  157  A    between atoms: _378  and  _379
REMARK  158  A    between atoms: _378  and  _381
REMARK  159  A    between atoms: _384  and  _386
REMARK  160  A    between atoms: _386  and  _387
REMARK  161  A    between atoms: _386  and  _389
REMARK  162  A    between atoms: _389  and  _390
REMARK  163  A    between atoms: _390  and  _391
REMARK  164  A    between atoms: _394  and  _396
REMARK  165  A    between atoms: _396  and  _397
REMARK  166  A    between atoms: _396  and  _399
REMARK  167  A    between atoms: _399  and  _400
REMARK  168  A    between atoms: _400  and  _401
REMARK  169  A    between atoms: _401  and  _402
REMARK  170  A    between atoms: _402  and  _403
REMARK  171  A    between atoms: _407  and  _409
REMARK  172  A    between atoms: _409  and  _410
REMARK  173  A    between atoms: _409  and  _412
REMARK  174  A    between atoms: _412  and  _413
REMARK  175  A    between atoms: _413  and  _414
REMARK  176  A    between atoms: _416  and  _418
REMARK  177  A    between atoms: _418  and  _419
REMARK  178  A    between atoms: _418  and  _421
REMARK  179  A    between atoms: _421  and  _422
REMARK  180  A    between atoms: _425  and  _427
REMARK  181  A    between atoms: _427  and  _428
REMARK  182  A    between atoms: _430  and  _432
REMARK  183  A    between atoms: _432  and  _433
REMARK  184  A    between atoms: _435  and  _437
REMARK  185  A    between atoms: _437  and  _438
REMARK  186  A    between atoms: _437  and  _440
REMARK  187  A    between atoms: _440  and  _441
REMARK  188  A    between atoms: _444  and  _446
REMARK  189  A    between atoms: _446  and  _447
REMARK  190  A    between atoms: _449  and  _451
REMARK  191  A    between atoms: _451  and  _452
REMARK  192  A    between atoms: _454  and  _456
REMARK  193  A    between atoms: _456  and  _457
REMARK  194  A    between atoms: _456  and  _459
REMARK  195  A    between atoms: _459  and  _460
REMARK  196  A    between atoms: _466  and  _468
REMARK  197  A    between atoms: _468  and  _469
REMARK  198  A    between atoms: _468  and  _471
REMARK  199  A    between atoms: _471  and  _472
REMARK  200  A    between atoms: _475  and  _477
REMARK  201  A    between atoms: _477  and  _478
REMARK  202  A    between atoms: _477  and  _480
REMARK  203  A    between atoms: _483  and  _485
REMARK  204  A    between atoms: _485  and  _486
REMARK  205  A    between atoms: _485  and  _488
REMARK  206  A    between atoms: _488  and  _489
REMARK  207  A    between atoms: _492  and  _494
REMARK  208  A    between atoms: _494  and  _495
REMARK  209  A    between atoms: _494  and  _497
REMARK  210  A    between atoms: _495  and  _496
REMARK  211  A    between atoms: _495  and  _501
REMARK  212  A    between atoms: _497  and  _498
REMARK  213  A    between atoms: _502  and  _503
REMARK  214  A    between atoms: _508  and  _510
REMARK  215  A    between atoms: _510  and  _511
REMARK  216  A    between atoms: _510  and  _513
REMARK  217  A    between atoms: _513  and  _514
REMARK  218  A    between atoms: _517  and  _519
REMARK  219  A    between atoms: _519  and  _520
REMARK  220  A    between atoms: _519  and  _522
REMARK  221  A    between atoms: _522  and  _523
REMARK  222  A    between atoms: _528  and  _530
REMARK  223  A    between atoms: _530  and  _531
REMARK  224  A    between atoms: _530  and  _533
REMARK  225  A    between atoms: _536  and  _538
REMARK  226  A    between atoms: _538  and  _539
REMARK  227  A    between atoms: _538  and  _541
REMARK  228  A    between atoms: _541  and  _542
REMARK  229  A    between atoms: _545  and  _547
REMARK  230  A    between atoms: _547  and  _548
REMARK  231  A    between atoms: _550  and  _552
REMARK  232  A    between atoms: _552  and  _553
REMARK  233  A    between atoms: _552  and  _555
REMARK  234  A    between atoms: _555  and  _556
REMARK  235  A    between atoms: _556  and  _557
REMARK  236  A    between atoms: _557  and  _558
REMARK                            x       y       z     vdW  Elec       q    Type
REMARK                         _______ _______ _______ _____ _____    ______ ____
ROOT
ATOM      1  O   HOH     1       8.666  33.680  12.504  0.00  0.00    +0.000 OA
ENDROOT
TORSDOF 0
REMARK  Name = ../refined-set-2016/4cp7/4cp7_pocket.pdb
REMARK  236 active torsions:
REMARK  status: ('A' for Active; 'I' for Inactive)
REMARK    1  A    between atoms: _1  and  _3
REMARK    2  A    between atoms: _3  and  _4
REMARK    3  A    between atoms: _3  and  _6
REMARK    4  A    between atoms: _6  and  _7
REMARK    5  A    between atoms: _7  and  _8
REMARK    6  A    between atoms: _8  and  _9
REMARK    7  A    between atoms: _18  and  _20
REMARK    8  A    between atoms: _20  and  _21
REMARK    9  A    between atoms: _20  and  _23
REMARK   10  A    between atoms: _23  and  _24
REMARK   11  A    between atoms: _27  and  _29
REMARK   12  A    between atoms: _29  and  _30
REMARK   13  A    between atoms: _29  and  _32
REMARK   14  A    between atoms: _32  and  _33
REMARK   15  A    between atoms: _36  and  _38
REMARK   16  A    between atoms: _38  and  _39
REMARK   17  A    between atoms: _38  and  _41
REMARK   18  A    between atoms: _41  and  _42
REMARK   19  A    between atoms: _45  and  _47
REMARK   20  A    between atoms: _47  and  _48
REMARK   21  A    between atoms: _47  and  _50
REMARK   22  A    between atoms: _50  and  _51
REMARK   23  A    between atoms: _54  and  _56
REMARK   24  A    between atoms: _56  and  _57
REMARK   25  A    between atoms: _59  and  _61
REMARK   26  A    between atoms: _61  and  _62
REMARK   27  A    between atoms: _65  and  _67
REMARK   28  A    between atoms: _67  and  _68
REMARK   29  A    between atoms: _67  and  _70
REMARK   30  A    between atoms: _70  and  _71
REMARK   31  A    between atoms: _74  and  _76
REMARK   32  A    between atoms: _76  and  _77
REMARK   33  A    between atoms: _76  and  _79
REMARK   34  A    between atoms: _79  and  _80
REMARK   35  A    between atoms: _83  and  _85
REMARK   36  A    between atoms: _85  and  _86
REMARK   37  A    between atoms: _85  and  _88
REMARK   38  A    between atoms: _88  and  _89
REMARK   39  A    between atoms: _92  and  _94
REMARK   40  A    between atoms: _94  and  _95
REMARK   41  A    between atoms: _94  and  _97
REMARK   42  A    between atoms: _100  and  _102
REMARK   43  A    between atoms: _102  and  _103
REMARK   44  A    between atoms: _102  and  _105
REMARK   45  A    between atoms: _105  and  _106
REMARK   46  A    between atoms: _106  and  _107
REMARK   47  A    between atoms: _107  and  _108
REMARK   48  A    between atoms: _108  and  _109
REMARK   49  A    between atoms: _113  and  _115
REMARK   50  A    between atoms: _115  and  _116
REMARK   51  A    between atoms: _115  and  _118
REMARK   52  A    between atoms: _118  and  _119
REMARK   53  A    between atoms: _119  and  _120
REMARK   54  A    between atoms: _122  and  _124
REMARK   55  A    between atoms: _124  and  _125
REMARK   56  A    between atoms: _124  and  _127
REMARK   57  A    between atoms: _127  and  _128
REMARK   58  A    between atoms: _131  and  _133
REMARK   59  A    between atoms: _133  and  _134
REMARK   60  A    between atoms: _136  and  _138
REMARK   61  A    between atoms: _138  and  _139
REMARK   62  A    between atoms: _141  and  _143
REMARK   63  A    between atoms: _143  and  _144
REMARK   64  A    between atoms: _143  and  _146
REMARK   65  A    between atoms: _146  and  _147
REMARK   66  A    between atoms: _150  and  _152
REMARK   67  A    between atoms: _152  and  _153
REMARK   68  A    between atoms: _155  and  _157
REMARK   69  A    between atoms: _157  and  _158
REMARK   70  A    between atoms: _160  and  _162
REMARK   71  A    between atoms: _162  and  _163
REMARK   72  A    between atoms: _162  and  _165
REMARK   73  A    between atoms: _165  and  _166
REMARK   74  A    between atoms: _172  and  _174
REMARK   75  A    between atoms: _174  and  _175
REMARK   76  A    between atoms: _174  and  _177
REMARK   77  A    between atoms: _177  and  _178
REMARK   78  A    between atoms: _181  and  _183
REMARK   79  A    between atoms: _183  and  _184
REMARK   80  A    between atoms: _183  and  _186
REMARK   81  A    between atoms: _186  and  _187
REMARK   82  A    between atoms: _190  and  _192
REMARK   83  A    between atoms: _192  and  _193
REMARK   84  A    between atoms: _192  and  _195
REMARK   85  A    between atoms: _195  and  _196
REMARK   86  A    between atoms: _200  and  _201
REMARK   87  A    between atoms: _206  and  _208
REMARK   88  A    between atoms: _208  and  _209
REMARK   89  A    between atoms: _208  and  _211
REMARK   90  A    between atoms: _211  and  _212
REMARK   91  A    between atoms: _215  and  _217
REMARK   92  A    between atoms: _217  and  _218
REMARK   93  A    between atoms: _217  and  _220
REMARK   94  A    between atoms: _220  and  _221
REMARK   95  A    between atoms: _226  and  _228
REMARK   96  A    between atoms: _228  and  _229
REMARK   97  A    between atoms: _228  and  _231
REMARK   98  A    between atoms: _234  and  _236
REMARK   99  A    between atoms: _236  and  _237
REMARK  100  A    between atoms: _236  and  _239
REMARK  101  A    between atoms: _239  and  _240
REMARK  102  A    between atoms: _243  and  _245
REMARK  103  A    between atoms: _245  and  _246
REMARK  104  A    between atoms: _248  and  _250
REMARK  105  A    between atoms: _250  and  _251
REMARK  106  A    between atoms: _250  and  _253
REMARK  107  A    between atoms: _253  and  _254
REMARK  108  A    between atoms: _254  and  _255
REMARK  109  A    between atoms: _255  and  _256
REMARK  110  A    between atoms: _265  and  _267
REMARK  111  A    between atoms: _267  and  _268
REMARK  112  A    between atoms: _267  and  _270
REMARK  113  A    between atoms: _270  and  _271
REMARK  114  A    between atoms: _276  and  _278
REMARK  115  A    between atoms: _278  and  _279
REMARK  116  A    between atoms: _278  and  _281
REMARK  117  A    between atoms: _281  and  _282
REMARK  118  A    between atoms: _282  and  _283
REMARK  119  A    between atoms: _283  and  _284
REMARK  120  A    between atoms: _293  and  _295
REMARK  121  A    between atoms: _295  and  _296
REMARK  122  A    between atoms: _295  and  _298
REMARK  123  A    between atoms: _298  and  _299
REMARK  124  A    between atoms: _302  and  _304
REMARK  125  A    between atoms: _304  and  _305
REMARK  126  A    between atoms: _304  and  _307
REMARK  127  A    between atoms: _307  and  _308
REMARK  128  A    between atoms: _311  and  _313
REMARK  129  A    between atoms: _313  and  _314
REMARK  130  A    between atoms: _313  and  _316
REMARK  131  A    between atoms: _316  and  _317
REMARK  132  A    between atoms: _320  and  _322
REMARK  133  A    between atoms: _322  and  _323
REMARK  134  A    between atoms: _322  and  _325
REMARK  135  A    between atoms: _325  and  _326
REMARK  136  A    between atoms: _329  and  _331
REMARK  137  A    between atoms: _331  and  _332
REMARK  138  A    between atoms: _331  and  _334
REMARK  139  A    between atoms: _334  and  _335
REMARK  140  A    between atoms: _338  and  _340
REMARK  141  A    between atoms: _340  and  _341
REMARK  142  A    between atoms: _343  and  _345
REMARK  143  A    between atoms: _345  and  _346
REMARK  144  A    between atoms: _349  and  _351
REMARK  145  A    between atoms: _351  and  _352
REMARK  146  A    between atoms: _351  and  _354
REMARK  147  A    between atoms: _354  and  _355
REMARK  148  A    between atoms: _358  and  _360
REMARK  149  A    between atoms: _360  and  _361
REMARK  150  A    between atoms: _360  and  _363
REMARK  151  A    between atoms: _363  and  _364
REMARK  152  A    between atoms: _367  and  _369
REMARK  153  A    between atoms: _369  and  _370
REMARK  154  A    between atoms: _369  and  _372
REMARK  155  A    between atoms: _372  and  _373
REMARK  156  A    between atoms: _376  and  _378
REMARK  157  A    between atoms: _378  and  _379
REMARK  158  A    between atoms: _378  and  _381
REMARK  159  A    between atoms: _384  and  _386
REMARK  160  A    between atoms: _386  and  _387
REMARK  161  A    between atoms: _386  and  _389
REMARK  162  A    between atoms: _389  and  _390
REMARK  163  A    between atoms: _390  and  _391
REMARK  164  A    between atoms: _394  and  _396
REMARK  165  A    between atoms: _396  and  _397
REMARK  166  A    between atoms: _396  and  _399
REMARK  167  A    between atoms: _399  and  _400
REMARK  168  A    between atoms: _400  and  _401
REMARK  169  A    between atoms: _401  and  _402
REMARK  170  A    between atoms: _402  and  _403
REMARK  171  A    between atoms: _407  and  _409
REMARK  172  A    between atoms: _409  and  _410
REMARK  173  A    between atoms: _409  and  _412
REMARK  174  A    between atoms: _412  and  _413
REMARK  175  A    between atoms: _413  and  _414
REMARK  176  A    between atoms: _416  and  _418
REMARK  177  A    between atoms: _418  and  _419
REMARK  178  A    between atoms: _418  and  _421
REMARK  179  A    between atoms: _421  and  _422
REMARK  180  A    between atoms: _425  and  _427
REMARK  181  A    between atoms: _427  and  _428
REMARK  182  A    between atoms: _430  and  _432
REMARK  183  A    between atoms: _432  and  _433
REMARK  184  A    between atoms: _435  and  _437
REMARK  185  A    between atoms: _437  and  _438
REMARK  186  A    between atoms: _437  and  _440
REMARK  187  A    between atoms: _440  and  _441
REMARK  188  A    between atoms: _444  and  _446
REMARK  189  A    between atoms: _446  and  _447
REMARK  190  A    between atoms: _449  and  _451
REMARK  191  A    between atoms: _451  and  _452
REMARK  192  A    between atoms: _454  and  _456
REMARK  193  A    between atoms: _456  and  _457
REMARK  194  A    between atoms: _456  and  _459
REMARK  195  A    between atoms: _459  and  _460
REMARK  196  A    between atoms: _466  and  _468
REMARK  197  A    between atoms: _468  and  _469
REMARK  198  A    between atoms: _468  and  _471
REMARK  199  A    between atoms: _471  and  _472
REMARK  200  A    between atoms: _475  and  _477
REMARK  201  A    between atoms: _477  and  _478
REMARK  202  A    between atoms: _477  and  _480
REMARK  203  A    between atoms: _483  and  _485
REMARK  204  A    between atoms: _485  and  _486
REMARK  205  A    between atoms: _485  and  _488
REMARK  206  A    between atoms: _488  and  _489
REMARK  207  A    between atoms: _492  and  _494
REMARK  208  A    between atoms: _494  and  _495
REMARK  209  A    between atoms: _494  and  _497
REMARK  210  A    between atoms: _495  and  _496
REMARK  211  A    between atoms: _495  and  _501
REMARK  212  A    between atoms: _497  and  _498
REMARK  213  A    between atoms: _502  and  _503
REMARK  214  A    between atoms: _508  and  _510
REMARK  215  A    between atoms: _510  and  _511
REMARK  216  A    between atoms: _510  and  _513
REMARK  217  A    between atoms: _513  and  _514
REMARK  218  A    between atoms: _517  and  _519
REMARK  219  A    between atoms: _519  and  _520
REMARK  220  A    between atoms: _519  and  _522
REMARK  221  A    between atoms: _522  and  _523
REMARK  222  A    between atoms: _528  and  _530
REMARK  223  A    between atoms: _530  and  _531
REMARK  224  A    between atoms: _530  and  _533
REMARK  225  A    between atoms: _536  and  _538
REMARK  226  A    between atoms: _538  and  _539
REMARK  227  A    between atoms: _538  and  _541
REMARK  228  A    between atoms: _541  and  _542
REMARK  229  A    between atoms: _545  and  _547
REMARK  230  A    between atoms: _547  and  _548
REMARK  231  A    between atoms: _550  and  _552
REMARK  232  A    between atoms: _552  and  _553
REMARK  233  A    between atoms: _552  and  _555
REMARK  234  A    between atoms: _555  and  _556
REMARK  235  A    between atoms: _556  and  _557
REMARK  236  A    between atoms: _557  and  _558
REMARK                            x       y       z     vdW  Elec       q    Type
REMARK                         _______ _______ _______ _____ _____    ______ ____
ROOT
ATOM      1  O   HOH     1      -0.776  29.572  10.189  0.00  0.00    +0.000 OA
ENDROOT
TORSDOF 0
REMARK  Name = ../refined-set-2016/4cp7/4cp7_pocket.pdb
REMARK  236 active torsions:
REMARK  status: ('A' for Active; 'I' for Inactive)
REMARK    1  A    between atoms: _1  and  _3
REMARK    2  A    between atoms: _3  and  _4
REMARK    3  A    between atoms: _3  and  _6
REMARK    4  A    between atoms: _6  and  _7
REMARK    5  A    between atoms: _7  and  _8
REMARK    6  A    between atoms: _8  and  _9
REMARK    7  A    between atoms: _18  and  _20
REMARK    8  A    between atoms: _20  and  _21
REMARK    9  A    between atoms: _20  and  _23
REMARK   10  A    between atoms: _23  and  _24
REMARK   11  A    between atoms: _27  and  _29
REMARK   12  A    between atoms: _29  and  _30
REMARK   13  A    between atoms: _29  and  _32
REMARK   14  A    between atoms: _32  and  _33
REMARK   15  A    between atoms: _36  and  _38
REMARK   16  A    between atoms: _38  and  _39
REMARK   17  A    between atoms: _38  and  _41
REMARK   18  A    between atoms: _41  and  _42
REMARK   19  A    between atoms: _45  and  _47
REMARK   20  A    between atoms: _47  and  _48
REMARK   21  A    between atoms: _47  and  _50
REMARK   22  A    between atoms: _50  and  _51
REMARK   23  A    between atoms: _54  and  _56
REMARK   24  A    between atoms: _56  and  _57
REMARK   25  A    between atoms: _59  and  _61
REMARK   26  A    between atoms: _61  and  _62
REMARK   27  A    between atoms: _65  and  _67
REMARK   28  A    between atoms: _67  and  _68
REMARK   29  A    between atoms: _67  and  _70
REMARK   30  A    between atoms: _70  and  _71
REMARK   31  A    between atoms: _74  and  _76
REMARK   32  A    between atoms: _76  and  _77
REMARK   33  A    between atoms: _76  and  _79
REMARK   34  A    between atoms: _79  and  _80
REMARK   35  A    between atoms: _83  and  _85
REMARK   36  A    between atoms: _85  and  _86
REMARK   37  A    between atoms: _85  and  _88
REMARK   38  A    between atoms: _88  and  _89
REMARK   39  A    between atoms: _92  and  _94
REMARK   40  A    between atoms: _94  and  _95
REMARK   41  A    between atoms: _94  and  _97
REMARK   42  A    between atoms: _100  and  _102
REMARK   43  A    between atoms: _102  and  _103
REMARK   44  A    between atoms: _102  and  _105
REMARK   45  A    between atoms: _105  and  _106
REMARK   46  A    between atoms: _106  and  _107
REMARK   47  A    between atoms: _107  and  _108
REMARK   48  A    between atoms: _108  and  _109
REMARK   49  A    between atoms: _113  and  _115
REMARK   50  A    between atoms: _115  and  _116
REMARK   51  A    between atoms: _115  and  _118
REMARK   52  A    between atoms: _118  and  _119
REMARK   53  A    between atoms: _119  and  _120
REMARK   54  A    between atoms: _122  and  _124
REMARK   55  A    between atoms: _124  and  _125
REMARK   56  A    between atoms: _124  and  _127
REMARK   57  A    between atoms: _127  and  _128
REMARK   58  A    between atoms: _131  and  _133
REMARK   59  A    between atoms: _133  and  _134
REMARK   60  A    between atoms: _136  and  _138
REMARK   61  A    between atoms: _138  and  _139
REMARK   62  A    between atoms: _141  and  _143
REMARK   63  A    between atoms: _143  and  _144
REMARK   64  A    between atoms: _143  and  _146
REMARK   65  A    between atoms: _146  and  _147
REMARK   66  A    between atoms: _150  and  _152
REMARK   67  A    between atoms: _152  and  _153
REMARK   68  A    between atoms: _155  and  _157
REMARK   69  A    between atoms: _157  and  _158
REMARK   70  A    between atoms: _160  and  _162
REMARK   71  A    between atoms: _162  and  _163
REMARK   72  A    between atoms: _162  and  _165
REMARK   73  A    between atoms: _165  and  _166
REMARK   74  A    between atoms: _172  and  _174
REMARK   75  A    between atoms: _174  and  _175
REMARK   76  A    between atoms: _174  and  _177
REMARK   77  A    between atoms: _177  and  _178
REMARK   78  A    between atoms: _181  and  _183
REMARK   79  A    between atoms: _183  and  _184
REMARK   80  A    between atoms: _183  and  _186
REMARK   81  A    between atoms: _186  and  _187
REMARK   82  A    between atoms: _190  and  _192
REMARK   83  A    between atoms: _192  and  _193
REMARK   84  A    between atoms: _192  and  _195
REMARK   85  A    between atoms: _195  and  _196
REMARK   86  A    between atoms: _200  and  _201
REMARK   87  A    between atoms: _206  and  _208
REMARK   88  A    between atoms: _208  and  _209
REMARK   89  A    between atoms: _208  and  _211
REMARK   90  A    between atoms: _211  and  _212
REMARK   91  A    between atoms: _215  and  _217
REMARK   92  A    between atoms: _217  and  _218
REMARK   93  A    between atoms: _217  and  _220
REMARK   94  A    between atoms: _220  and  _221
REMARK   95  A    between atoms: _226  and  _228
REMARK   96  A    between atoms: _228  and  _229
REMARK   97  A    between atoms: _228  and  _231
REMARK   98  A    between atoms: _234  and  _236
REMARK   99  A    between atoms: _236  and  _237
REMARK  100  A    between atoms: _236  and  _239
REMARK  101  A    between atoms: _239  and  _240
REMARK  102  A    between atoms: _243  and  _245
REMARK  103  A    between atoms: _245  and  _246
REMARK  104  A    between atoms: _248  and  _250
REMARK  105  A    between atoms: _250  and  _251
REMARK  106  A    between atoms: _250  and  _253
REMARK  107  A    between atoms: _253  and  _254
REMARK  108  A    between atoms: _254  and  _255
REMARK  109  A    between atoms: _255  and  _256
REMARK  110  A    between atoms: _265  and  _267
REMARK  111  A    between atoms: _267  and  _268
REMARK  112  A    between atoms: _267  and  _270
REMARK  113  A    between atoms: _270  and  _271
REMARK  114  A    between atoms: _276  and  _278
REMARK  115  A    between atoms: _278  and  _279
REMARK  116  A    between atoms: _278  and  _281
REMARK  117  A    between atoms: _281  and  _282
REMARK  118  A    between atoms: _282  and  _283
REMARK  119  A    between atoms: _283  and  _284
REMARK  120  A    between atoms: _293  and  _295
REMARK  121  A    between atoms: _295  and  _296
REMARK  122  A    between atoms: _295  and  _298
REMARK  123  A    between atoms: _298  and  _299
REMARK  124  A    between atoms: _302  and  _304
REMARK  125  A    between atoms: _304  and  _305
REMARK  126  A    between atoms: _304  and  _307
REMARK  127  A    between atoms: _307  and  _308
REMARK  128  A    between atoms: _311  and  _313
REMARK  129  A    between atoms: _313  and  _314
REMARK  130  A    between atoms: _313  and  _316
REMARK  131  A    between atoms: _316  and  _317
REMARK  132  A    between atoms: _320  and  _322
REMARK  133  A    between atoms: _322  and  _323
REMARK  134  A    between atoms: _322  and  _325
REMARK  135  A    between atoms: _325  and  _326
REMARK  136  A    between atoms: _329  and  _331
REMARK  137  A    between atoms: _331  and  _332
REMARK  138  A    between atoms: _331  and  _334
REMARK  139  A    between atoms: _334  and  _335
REMARK  140  A    between atoms: _338  and  _340
REMARK  141  A    between atoms: _340  and  _341
REMARK  142  A    between atoms: _343  and  _345
REMARK  143  A    between atoms: _345  and  _346
REMARK  144  A    between atoms: _349  and  _351
REMARK  145  A    between atoms: _351  and  _352
REMARK  146  A    between atoms: _351  and  _354
REMARK  147  A    between atoms: _354  and  _355
REMARK  148  A    between atoms: _358  and  _360
REMARK  149  A    between atoms: _360  and  _361
REMARK  150  A    between atoms: _360  and  _363
REMARK  151  A    between atoms: _363  and  _364
REMARK  152  A    between atoms: _367  and  _369
REMARK  153  A    between atoms: _369  and  _370
REMARK  154  A    between atoms: _369  and  _372
REMARK  155  A    between atoms: _372  and  _373
REMARK  156  A    between atoms: _376  and  _378
REMARK  157  A    between atoms: _378  and  _379
REMARK  158  A    between atoms: _378  and  _381
REMARK  159  A    between atoms: _384  and  _386
REMARK  160  A    between atoms: _386  and  _387
REMARK  161  A    between atoms: _386  and  _389
REMARK  162  A    between atoms: _389  and  _390
REMARK  163  A    between atoms: _390  and  _391
REMARK  164  A    between atoms: _394  and  _396
REMARK  165  A    between atoms: _396  and  _397
REMARK  166  A    between atoms: _396  and  _399
REMARK  167  A    between atoms: _399  and  _400
REMARK  168  A    between atoms: _400  and  _401
REMARK  169  A    between atoms: _401  and  _402
REMARK  170  A    between atoms: _402  and  _403
REMARK  171  A    between atoms: _407  and  _409
REMARK  172  A    between atoms: _409  and  _410
REMARK  173  A    between atoms: _409  and  _412
REMARK  174  A    between atoms: _412  and  _413
REMARK  175  A    between atoms: _413  and  _414
REMARK  176  A    between atoms: _416  and  _418
REMARK  177  A    between atoms: _418  and  _419
REMARK  178  A    between atoms: _418  and  _421
REMARK  179  A    between atoms: _421  and  _422
REMARK  180  A    between atoms: _425  and  _427
REMARK  181  A    between atoms: _427  and  _428
REMARK  182  A    between atoms: _430  and  _432
REMARK  183  A    between atoms: _432  and  _433
REMARK  184  A    between atoms: _435  and  _437
REMARK  185  A    between atoms: _437  and  _438
REMARK  186  A    between atoms: _437  and  _440
REMARK  187  A    between atoms: _440  and  _441
REMARK  188  A    between atoms: _444  and  _446
REMARK  189  A    between atoms: _446  and  _447
REMARK  190  A    between atoms: _449  and  _451
REMARK  191  A    between atoms: _451  and  _452
REMARK  192  A    between atoms: _454  and  _456
REMARK  193  A    between atoms: _456  and  _457
REMARK  194  A    between atoms: _456  and  _459
REMARK  195  A    between atoms: _459  and  _460
REMARK  196  A    between atoms: _466  and  _468
REMARK  197  A    between atoms: _468  and  _469
REMARK  198  A    between atoms: _468  and  _471
REMARK  199  A    between atoms: _471  and  _472
REMARK  200  A    between atoms: _475  and  _477
REMARK  201  A    between atoms: _477  and  _478
REMARK  202  A    between atoms: _477  and  _480
REMARK  203  A    between atoms: _483  and  _485
REMARK  204  A    between atoms: _485  and  _486
REMARK  205  A    between atoms: _485  and  _488
REMARK  206  A    between atoms: _488  and  _489
REMARK  207  A    between atoms: _492  and  _494
REMARK  208  A    between atoms: _494  and  _495
REMARK  209  A    between atoms: _494  and  _497
REMARK  210  A    between atoms: _495  and  _496
REMARK  211  A    between atoms: _495  and  _501
REMARK  212  A    between atoms: _497  and  _498
REMARK  213  A    between atoms: _502  and  _503
REMARK  214  A    between atoms: _508  and  _510
REMARK  215  A    between atoms: _510  and  _511
REMARK  216  A    between atoms: _510  and  _513
REMARK  217  A    between atoms: _513  and  _514
REMARK  218  A    between atoms: _517  and  _519
REMARK  219  A    between atoms: _519  and  _520
REMARK  220  A    between atoms: _519  and  _522
REMARK  221  A    between atoms: _522  and  _523
REMARK  222  A    between atoms: _528  and  _530
REMARK  223  A    between atoms: _530  and  _531
REMARK  224  A    between atoms: _530  and  _533
REMARK  225  A    between atoms: _536  and  _538
REMARK  226  A    between atoms: _538  and  _539
REMARK  227  A    between atoms: _538  and  _541
REMARK  228  A    between atoms: _541  and  _542
REMARK  229  A    between atoms: _545  and  _547
REMARK  230  A    between atoms: _547  and  _548
REMARK  231  A    between atoms: _550  and  _552
REMARK  232  A    between atoms: _552  and  _553
REMARK  233  A    between atoms: _552  and  _555
REMARK  234  A    between atoms: _555  and  _556
REMARK  235  A    between atoms: _556  and  _557
REMARK  236  A    between atoms: _557  and  _558
REMARK                            x       y       z     vdW  Elec       q    Type
REMARK                         _______ _______ _______ _____ _____    ______ ____
ROOT
ATOM      1  O   HOH     1      -1.485  27.496  11.975  0.00  0.00    +0.000 OA
ENDROOT
TORSDOF 0
REMARK  Name = ../refined-set-2016/4cp7/4cp7_pocket.pdb
REMARK  236 active torsions:
REMARK  status: ('A' for Active; 'I' for Inactive)
REMARK    1  A    between atoms: _1  and  _3
REMARK    2  A    between atoms: _3  and  _4
REMARK    3  A    between atoms: _3  and  _6
REMARK    4  A    between atoms: _6  and  _7
REMARK    5  A    between atoms: _7  and  _8
REMARK    6  A    between atoms: _8  and  _9
REMARK    7  A    between atoms: _18  and  _20
REMARK    8  A    between atoms: _20  and  _21
REMARK    9  A    between atoms: _20  and  _23
REMARK   10  A    between atoms: _23  and  _24
REMARK   11  A    between atoms: _27  and  _29
REMARK   12  A    between atoms: _29  and  _30
REMARK   13  A    between atoms: _29  and  _32
REMARK   14  A    between atoms: _32  and  _33
REMARK   15  A    between atoms: _36  and  _38
REMARK   16  A    between atoms: _38  and  _39
REMARK   17  A    between atoms: _38  and  _41
REMARK   18  A    between atoms: _41  and  _42
REMARK   19  A    between atoms: _45  and  _47
REMARK   20  A    between atoms: _47  and  _48
REMARK   21  A    between atoms: _47  and  _50
REMARK   22  A    between atoms: _50  and  _51
REMARK   23  A    between atoms: _54  and  _56
REMARK   24  A    between atoms: _56  and  _57
REMARK   25  A    between atoms: _59  and  _61
REMARK   26  A    between atoms: _61  and  _62
REMARK   27  A    between atoms: _65  and  _67
REMARK   28  A    between atoms: _67  and  _68
REMARK   29  A    between atoms: _67  and  _70
REMARK   30  A    between atoms: _70  and  _71
REMARK   31  A    between atoms: _74  and  _76
REMARK   32  A    between atoms: _76  and  _77
REMARK   33  A    between atoms: _76  and  _79
REMARK   34  A    between atoms: _79  and  _80
REMARK   35  A    between atoms: _83  and  _85
REMARK   36  A    between atoms: _85  and  _86
REMARK   37  A    between atoms: _85  and  _88
REMARK   38  A    between atoms: _88  and  _89
REMARK   39  A    between atoms: _92  and  _94
REMARK   40  A    between atoms: _94  and  _95
REMARK   41  A    between atoms: _94  and  _97
REMARK   42  A    between atoms: _100  and  _102
REMARK   43  A    between atoms: _102  and  _103
REMARK   44  A    between atoms: _102  and  _105
REMARK   45  A    between atoms: _105  and  _106
REMARK   46  A    between atoms: _106  and  _107
REMARK   47  A    between atoms: _107  and  _108
REMARK   48  A    between atoms: _108  and  _109
REMARK   49  A    between atoms: _113  and  _115
REMARK   50  A    between atoms: _115  and  _116
REMARK   51  A    between atoms: _115  and  _118
REMARK   52  A    between atoms: _118  and  _119
REMARK   53  A    between atoms: _119  and  _120
REMARK   54  A    between atoms: _122  and  _124
REMARK   55  A    between atoms: _124  and  _125
REMARK   56  A    between atoms: _124  and  _127
REMARK   57  A    between atoms: _127  and  _128
REMARK   58  A    between atoms: _131  and  _133
REMARK   59  A    between atoms: _133  and  _134
REMARK   60  A    between atoms: _136  and  _138
REMARK   61  A    between atoms: _138  and  _139
REMARK   62  A    between atoms: _141  and  _143
REMARK   63  A    between atoms: _143  and  _144
REMARK   64  A    between atoms: _143  and  _146
REMARK   65  A    between atoms: _146  and  _147
REMARK   66  A    between atoms: _150  and  _152
REMARK   67  A    between atoms: _152  and  _153
REMARK   68  A    between atoms: _155  and  _157
REMARK   69  A    between atoms: _157  and  _158
REMARK   70  A    between atoms: _160  and  _162
REMARK   71  A    between atoms: _162  and  _163
REMARK   72  A    between atoms: _162  and  _165
REMARK   73  A    between atoms: _165  and  _166
REMARK   74  A    between atoms: _172  and  _174
REMARK   75  A    between atoms: _174  and  _175
REMARK   76  A    between atoms: _174  and  _177
REMARK   77  A    between atoms: _177  and  _178
REMARK   78  A    between atoms: _181  and  _183
REMARK   79  A    between atoms: _183  and  _184
REMARK   80  A    between atoms: _183  and  _186
REMARK   81  A    between atoms: _186  and  _187
REMARK   82  A    between atoms: _190  and  _192
REMARK   83  A    between atoms: _192  and  _193
REMARK   84  A    between atoms: _192  and  _195
REMARK   85  A    between atoms: _195  and  _196
REMARK   86  A    between atoms: _200  and  _201
REMARK   87  A    between atoms: _206  and  _208
REMARK   88  A    between atoms: _208  and  _209
REMARK   89  A    between atoms: _208  and  _211
REMARK   90  A    between atoms: _211  and  _212
REMARK   91  A    between atoms: _215  and  _217
REMARK   92  A    between atoms: _217  and  _218
REMARK   93  A    between atoms: _217  and  _220
REMARK   94  A    between atoms: _220  and  _221
REMARK   95  A    between atoms: _226  and  _228
REMARK   96  A    between atoms: _228  and  _229
REMARK   97  A    between atoms: _228  and  _231
REMARK   98  A    between atoms: _234  and  _236
REMARK   99  A    between atoms: _236  and  _237
REMARK  100  A    between atoms: _236  and  _239
REMARK  101  A    between atoms: _239  and  _240
REMARK  102  A    between atoms: _243  and  _245
REMARK  103  A    between atoms: _245  and  _246
REMARK  104  A    between atoms: _248  and  _250
REMARK  105  A    between atoms: _250  and  _251
REMARK  106  A    between atoms: _250  and  _253
REMARK  107  A    between atoms: _253  and  _254
REMARK  108  A    between atoms: _254  and  _255
REMARK  109  A    between atoms: _255  and  _256
REMARK  110  A    between atoms: _265  and  _267
REMARK  111  A    between atoms: _267  and  _268
REMARK  112  A    between atoms: _267  and  _270
REMARK  113  A    between atoms: _270  and  _271
REMARK  114  A    between atoms: _276  and  _278
REMARK  115  A    between atoms: _278  and  _279
REMARK  116  A    between atoms: _278  and  _281
REMARK  117  A    between atoms: _281  and  _282
REMARK  118  A    between atoms: _282  and  _283
REMARK  119  A    between atoms: _283  and  _284
REMARK  120  A    between atoms: _293  and  _295
REMARK  121  A    between atoms: _295  and  _296
REMARK  122  A    between atoms: _295  and  _298
REMARK  123  A    between atoms: _298  and  _299
REMARK  124  A    between atoms: _302  and  _304
REMARK  125  A    between atoms: _304  and  _305
REMARK  126  A    between atoms: _304  and  _307
REMARK  127  A    between atoms: _307  and  _308
REMARK  128  A    between atoms: _311  and  _313
REMARK  129  A    between atoms: _313  and  _314
REMARK  130  A    between atoms: _313  and  _316
REMARK  131  A    between atoms: _316  and  _317
REMARK  132  A    between atoms: _320  and  _322
REMARK  133  A    between atoms: _322  and  _323
REMARK  134  A    between atoms: _322  and  _325
REMARK  135  A    between atoms: _325  and  _326
REMARK  136  A    between atoms: _329  and  _331
REMARK  137  A    between atoms: _331  and  _332
REMARK  138  A    between atoms: _331  and  _334
REMARK  139  A    between atoms: _334  and  _335
REMARK  140  A    between atoms: _338  and  _340
REMARK  141  A    between atoms: _340  and  _341
REMARK  142  A    between atoms: _343  and  _345
REMARK  143  A    between atoms: _345  and  _346
REMARK  144  A    between atoms: _349  and  _351
REMARK  145  A    between atoms: _351  and  _352
REMARK  146  A    between atoms: _351  and  _354
REMARK  147  A    between atoms: _354  and  _355
REMARK  148  A    between atoms: _358  and  _360
REMARK  149  A    between atoms: _360  and  _361
REMARK  150  A    between atoms: _360  and  _363
REMARK  151  A    between atoms: _363  and  _364
REMARK  152  A    between atoms: _367  and  _369
REMARK  153  A    between atoms: _369  and  _370
REMARK  154  A    between atoms: _369  and  _372
REMARK  155  A    between atoms: _372  and  _373
REMARK  156  A    between atoms: _376  and  _378
REMARK  157  A    between atoms: _378  and  _379
REMARK  158  A    between atoms: _378  and  _381
REMARK  159  A    between atoms: _384  and  _386
REMARK  160  A    between atoms: _386  and  _387
REMARK  161  A    between atoms: _386  and  _389
REMARK  162  A    between atoms: _389  and  _390
REMARK  163  A    between atoms: _390  and  _391
REMARK  164  A    between atoms: _394  and  _396
REMARK  165  A    between atoms: _396  and  _397
REMARK  166  A    between atoms: _396  and  _399
REMARK  167  A    between atoms: _399  and  _400
REMARK  168  A    between atoms: _400  and  _401
REMARK  169  A    between atoms: _401  and  _402
REMARK  170  A    between atoms: _402  and  _403
REMARK  171  A    between atoms: _407  and  _409
REMARK  172  A    between atoms: _409  and  _410
REMARK  173  A    between atoms: _409  and  _412
REMARK  174  A    between atoms: _412  and  _413
REMARK  175  A    between atoms: _413  and  _414
REMARK  176  A    between atoms: _416  and  _418
REMARK  177  A    between atoms: _418  and  _419
REMARK  178  A    between atoms: _418  and  _421
REMARK  179  A    between atoms: _421  and  _422
REMARK  180  A    between atoms: _425  and  _427
REMARK  181  A    between atoms: _427  and  _428
REMARK  182  A    between atoms: _430  and  _432
REMARK  183  A    between atoms: _432  and  _433
REMARK  184  A    between atoms: _435  and  _437
REMARK  185  A    between atoms: _437  and  _438
REMARK  186  A    between atoms: _437  and  _440
REMARK  187  A    between atoms: _440  and  _441
REMARK  188  A    between atoms: _444  and  _446
REMARK  189  A    between atoms: _446  and  _447
REMARK  190  A    between atoms: _449  and  _451
REMARK  191  A    between atoms: _451  and  _452
REMARK  192  A    between atoms: _454  and  _456
REMARK  193  A    between atoms: _456  and  _457
REMARK  194  A    between atoms: _456  and  _459
REMARK  195  A    between atoms: _459  and  _460
REMARK  196  A    between atoms: _466  and  _468
REMARK  197  A    between atoms: _468  and  _469
REMARK  198  A    between atoms: _468  and  _471
REMARK  199  A    between atoms: _471  and  _472
REMARK  200  A    between atoms: _475  and  _477
REMARK  201  A    between atoms: _477  and  _478
REMARK  202  A    between atoms: _477  and  _480
REMARK  203  A    between atoms: _483  and  _485
REMARK  204  A    between atoms: _485  and  _486
REMARK  205  A    between atoms: _485  and  _488
REMARK  206  A    between atoms: _488  and  _489
REMARK  207  A    between atoms: _492  and  _494
REMARK  208  A    between atoms: _494  and  _495
REMARK  209  A    between atoms: _494  and  _497
REMARK  210  A    between atoms: _495  and  _496
REMARK  211  A    between atoms: _495  and  _501
REMARK  212  A    between atoms: _497  and  _498
REMARK  213  A    between atoms: _502  and  _503
REMARK  214  A    between atoms: _508  and  _510
REMARK  215  A    between atoms: _510  and  _511
REMARK  216  A    between atoms: _510  and  _513
REMARK  217  A    between atoms: _513  and  _514
REMARK  218  A    between atoms: _517  and  _519
REMARK  219  A    between atoms: _519  and  _520
REMARK  220  A    between atoms: _519  and  _522
REMARK  221  A    between atoms: _522  and  _523
REMARK  222  A    between atoms: _528  and  _530
REMARK  223  A    between atoms: _530  and  _531
REMARK  224  A    between atoms: _530  and  _533
REMARK  225  A    between atoms: _536  and  _538
REMARK  226  A    between atoms: _538  and  _539
REMARK  227  A    between atoms: _538  and  _541
REMARK  228  A    between atoms: _541  and  _542
REMARK  229  A    between atoms: _545  and  _547
REMARK  230  A    between atoms: _547  and  _548
REMARK  231  A    between atoms: _550  and  _552
REMARK  232  A    between atoms: _552  and  _553
REMARK  233  A    between atoms: _552  and  _555
REMARK  234  A    between atoms: _555  and  _556
REMARK  235  A    between atoms: _556  and  _557
REMARK  236  A    between atoms: _557  and  _558
REMARK                            x       y       z     vdW  Elec       q    Type
REMARK                         _______ _______ _______ _____ _____    ______ ____
ROOT
ATOM      1  O   HOH     1       2.910  25.872   7.232  0.00  0.00    +0.000 OA
ENDROOT
TORSDOF 0
REMARK  Name = ../refined-set-2016/4cp7/4cp7_pocket.pdb
REMARK  236 active torsions:
REMARK  status: ('A' for Active; 'I' for Inactive)
REMARK    1  A    between atoms: _1  and  _3
REMARK    2  A    between atoms: _3  and  _4
REMARK    3  A    between atoms: _3  and  _6
REMARK    4  A    between atoms: _6  and  _7
REMARK    5  A    between atoms: _7  and  _8
REMARK    6  A    between atoms: _8  and  _9
REMARK    7  A    between atoms: _18  and  _20
REMARK    8  A    between atoms: _20  and  _21
REMARK    9  A    between atoms: _20  and  _23
REMARK   10  A    between atoms: _23  and  _24
REMARK   11  A    between atoms: _27  and  _29
REMARK   12  A    between atoms: _29  and  _30
REMARK   13  A    between atoms: _29  and  _32
REMARK   14  A    between atoms: _32  and  _33
REMARK   15  A    between atoms: _36  and  _38
REMARK   16  A    between atoms: _38  and  _39
REMARK   17  A    between atoms: _38  and  _41
REMARK   18  A    between atoms: _41  and  _42
REMARK   19  A    between atoms: _45  and  _47
REMARK   20  A    between atoms: _47  and  _48
REMARK   21  A    between atoms: _47  and  _50
REMARK   22  A    between atoms: _50  and  _51
REMARK   23  A    between atoms: _54  and  _56
REMARK   24  A    between atoms: _56  and  _57
REMARK   25  A    between atoms: _59  and  _61
REMARK   26  A    between atoms: _61  and  _62
REMARK   27  A    between atoms: _65  and  _67
REMARK   28  A    between atoms: _67  and  _68
REMARK   29  A    between atoms: _67  and  _70
REMARK   30  A    between atoms: _70  and  _71
REMARK   31  A    between atoms: _74  and  _76
REMARK   32  A    between atoms: _76  and  _77
REMARK   33  A    between atoms: _76  and  _79
REMARK   34  A    between atoms: _79  and  _80
REMARK   35  A    between atoms: _83  and  _85
REMARK   36  A    between atoms: _85  and  _86
REMARK   37  A    between atoms: _85  and  _88
REMARK   38  A    between atoms: _88  and  _89
REMARK   39  A    between atoms: _92  and  _94
REMARK   40  A    between atoms: _94  and  _95
REMARK   41  A    between atoms: _94  and  _97
REMARK   42  A    between atoms: _100  and  _102
REMARK   43  A    between atoms: _102  and  _103
REMARK   44  A    between atoms: _102  and  _105
REMARK   45  A    between atoms: _105  and  _106
REMARK   46  A    between atoms: _106  and  _107
REMARK   47  A    between atoms: _107  and  _108
REMARK   48  A    between atoms: _108  and  _109
REMARK   49  A    between atoms: _113  and  _115
REMARK   50  A    between atoms: _115  and  _116
REMARK   51  A    between atoms: _115  and  _118
REMARK   52  A    between atoms: _118  and  _119
REMARK   53  A    between atoms: _119  and  _120
REMARK   54  A    between atoms: _122  and  _124
REMARK   55  A    between atoms: _124  and  _125
REMARK   56  A    between atoms: _124  and  _127
REMARK   57  A    between atoms: _127  and  _128
REMARK   58  A    between atoms: _131  and  _133
REMARK   59  A    between atoms: _133  and  _134
REMARK   60  A    between atoms: _136  and  _138
REMARK   61  A    between atoms: _138  and  _139
REMARK   62  A    between atoms: _141  and  _143
REMARK   63  A    between atoms: _143  and  _144
REMARK   64  A    between atoms: _143  and  _146
REMARK   65  A    between atoms: _146  and  _147
REMARK   66  A    between atoms: _150  and  _152
REMARK   67  A    between atoms: _152  and  _153
REMARK   68  A    between atoms: _155  and  _157
REMARK   69  A    between atoms: _157  and  _158
REMARK   70  A    between atoms: _160  and  _162
REMARK   71  A    between atoms: _162  and  _163
REMARK   72  A    between atoms: _162  and  _165
REMARK   73  A    between atoms: _165  and  _166
REMARK   74  A    between atoms: _172  and  _174
REMARK   75  A    between atoms: _174  and  _175
REMARK   76  A    between atoms: _174  and  _177
REMARK   77  A    between atoms: _177  and  _178
REMARK   78  A    between atoms: _181  and  _183
REMARK   79  A    between atoms: _183  and  _184
REMARK   80  A    between atoms: _183  and  _186
REMARK   81  A    between atoms: _186  and  _187
REMARK   82  A    between atoms: _190  and  _192
REMARK   83  A    between atoms: _192  and  _193
REMARK   84  A    between atoms: _192  and  _195
REMARK   85  A    between atoms: _195  and  _196
REMARK   86  A    between atoms: _200  and  _201
REMARK   87  A    between atoms: _206  and  _208
REMARK   88  A    between atoms: _208  and  _209
REMARK   89  A    between atoms: _208  and  _211
REMARK   90  A    between atoms: _211  and  _212
REMARK   91  A    between atoms: _215  and  _217
REMARK   92  A    between atoms: _217  and  _218
REMARK   93  A    between atoms: _217  and  _220
REMARK   94  A    between atoms: _220  and  _221
REMARK   95  A    between atoms: _226  and  _228
REMARK   96  A    between atoms: _228  and  _229
REMARK   97  A    between atoms: _228  and  _231
REMARK   98  A    between atoms: _234  and  _236
REMARK   99  A    between atoms: _236  and  _237
REMARK  100  A    between atoms: _236  and  _239
REMARK  101  A    between atoms: _239  and  _240
REMARK  102  A    between atoms: _243  and  _245
REMARK  103  A    between atoms: _245  and  _246
REMARK  104  A    between atoms: _248  and  _250
REMARK  105  A    between atoms: _250  and  _251
REMARK  106  A    between atoms: _250  and  _253
REMARK  107  A    between atoms: _253  and  _254
REMARK  108  A    between atoms: _254  and  _255
REMARK  109  A    between atoms: _255  and  _256
REMARK  110  A    between atoms: _265  and  _267
REMARK  111  A    between atoms: _267  and  _268
REMARK  112  A    between atoms: _267  and  _270
REMARK  113  A    between atoms: _270  and  _271
REMARK  114  A    between atoms: _276  and  _278
REMARK  115  A    between atoms: _278  and  _279
REMARK  116  A    between atoms: _278  and  _281
REMARK  117  A    between atoms: _281  and  _282
REMARK  118  A    between atoms: _282  and  _283
REMARK  119  A    between atoms: _283  and  _284
REMARK  120  A    between atoms: _293  and  _295
REMARK  121  A    between atoms: _295  and  _296
REMARK  122  A    between atoms: _295  and  _298
REMARK  123  A    between atoms: _298  and  _299
REMARK  124  A    between atoms: _302  and  _304
REMARK  125  A    between atoms: _304  and  _305
REMARK  126  A    between atoms: _304  and  _307
REMARK  127  A    between atoms: _307  and  _308
REMARK  128  A    between atoms: _311  and  _313
REMARK  129  A    between atoms: _313  and  _314
REMARK  130  A    between atoms: _313  and  _316
REMARK  131  A    between atoms: _316  and  _317
REMARK  132  A    between atoms: _320  and  _322
REMARK  133  A    between atoms: _322  and  _323
REMARK  134  A    between atoms: _322  and  _325
REMARK  135  A    between atoms: _325  and  _326
REMARK  136  A    between atoms: _329  and  _331
REMARK  137  A    between atoms: _331  and  _332
REMARK  138  A    between atoms: _331  and  _334
REMARK  139  A    between atoms: _334  and  _335
REMARK  140  A    between atoms: _338  and  _340
REMARK  141  A    between atoms: _340  and  _341
REMARK  142  A    between atoms: _343  and  _345
REMARK  143  A    between atoms: _345  and  _346
REMARK  144  A    between atoms: _349  and  _351
REMARK  145  A    between atoms: _351  and  _352
REMARK  146  A    between atoms: _351  and  _354
REMARK  147  A    between atoms: _354  and  _355
REMARK  148  A    between atoms: _358  and  _360
REMARK  149  A    between atoms: _360  and  _361
REMARK  150  A    between atoms: _360  and  _363
REMARK  151  A    between atoms: _363  and  _364
REMARK  152  A    between atoms: _367  and  _369
REMARK  153  A    between atoms: _369  and  _370
REMARK  154  A    between atoms: _369  and  _372
REMARK  155  A    between atoms: _372  and  _373
REMARK  156  A    between atoms: _376  and  _378
REMARK  157  A    between atoms: _378  and  _379
REMARK  158  A    between atoms: _378  and  _381
REMARK  159  A    between atoms: _384  and  _386
REMARK  160  A    between atoms: _386  and  _387
REMARK  161  A    between atoms: _386  and  _389
REMARK  162  A    between atoms: _389  and  _390
REMARK  163  A    between atoms: _390  and  _391
REMARK  164  A    between atoms: _394  and  _396
REMARK  165  A    between atoms: _396  and  _397
REMARK  166  A    between atoms: _396  and  _399
REMARK  167  A    between atoms: _399  and  _400
REMARK  168  A    between atoms: _400  and  _401
REMARK  169  A    between atoms: _401  and  _402
REMARK  170  A    between atoms: _402  and  _403
REMARK  171  A    between atoms: _407  and  _409
REMARK  172  A    between atoms: _409  and  _410
REMARK  173  A    between atoms: _409  and  _412
REMARK  174  A    between atoms: _412  and  _413
REMARK  175  A    between atoms: _413  and  _414
REMARK  176  A    between atoms: _416  and  _418
REMARK  177  A    between atoms: _418  and  _419
REMARK  178  A    between atoms: _418  and  _421
REMARK  179  A    between atoms: _421  and  _422
REMARK  180  A    between atoms: _425  and  _427
REMARK  181  A    between atoms: _427  and  _428
REMARK  182  A    between atoms: _430  and  _432
REMARK  183  A    between atoms: _432  and  _433
REMARK  184  A    between atoms: _435  and  _437
REMARK  185  A    between atoms: _437  and  _438
REMARK  186  A    between atoms: _437  and  _440
REMARK  187  A    between atoms: _440  and  _441
REMARK  188  A    between atoms: _444  and  _446
REMARK  189  A    between atoms: _446  and  _447
REMARK  190  A    between atoms: _449  and  _451
REMARK  191  A    between atoms: _451  and  _452
REMARK  192  A    between atoms: _454  and  _456
REMARK  193  A    between atoms: _456  and  _457
REMARK  194  A    between atoms: _456  and  _459
REMARK  195  A    between atoms: _459  and  _460
REMARK  196  A    between atoms: _466  and  _468
REMARK  197  A    between atoms: _468  and  _469
REMARK  198  A    between atoms: _468  and  _471
REMARK  199  A    between atoms: _471  and  _472
REMARK  200  A    between atoms: _475  and  _477
REMARK  201  A    between atoms: _477  and  _478
REMARK  202  A    between atoms: _477  and  _480
REMARK  203  A    between atoms: _483  and  _485
REMARK  204  A    between atoms: _485  and  _486
REMARK  205  A    between atoms: _485  and  _488
REMARK  206  A    between atoms: _488  and  _489
REMARK  207  A    between atoms: _492  and  _494
REMARK  208  A    between atoms: _494  and  _495
REMARK  209  A    between atoms: _494  and  _497
REMARK  210  A    between atoms: _495  and  _496
REMARK  211  A    between atoms: _495  and  _501
REMARK  212  A    between atoms: _497  and  _498
REMARK  213  A    between atoms: _502  and  _503
REMARK  214  A    between atoms: _508  and  _510
REMARK  215  A    between atoms: _510  and  _511
REMARK  216  A    between atoms: _510  and  _513
REMARK  217  A    between atoms: _513  and  _514
REMARK  218  A    between atoms: _517  and  _519
REMARK  219  A    between atoms: _519  and  _520
REMARK  220  A    between atoms: _519  and  _522
REMARK  221  A    between atoms: _522  and  _523
REMARK  222  A    between atoms: _528  and  _530
REMARK  223  A    between atoms: _530  and  _531
REMARK  224  A    between atoms: _530  and  _533
REMARK  225  A    between atoms: _536  and  _538
REMARK  226  A    between atoms: _538  and  _539
REMARK  227  A    between atoms: _538  and  _541
REMARK  228  A    between atoms: _541  and  _542
REMARK  229  A    between atoms: _545  and  _547
REMARK  230  A    between atoms: _547  and  _548
REMARK  231  A    between atoms: _550  and  _552
REMARK  232  A    between atoms: _552  and  _553
REMARK  233  A    between atoms: _552  and  _555
REMARK  234  A    between atoms: _555  and  _556
REMARK  235  A    between atoms: _556  and  _557
REMARK  236  A    between atoms: _557  and  _558
REMARK                            x       y       z     vdW  Elec       q    Type
REMARK                         _______ _______ _______ _____ _____    ______ ____
ROOT
ATOM      1  O   HOH     1      21.658  23.208  10.982  0.00  0.00    +0.000 OA
ENDROOT
TORSDOF 0
REMARK  Name = ../refined-set-2016/4cp7/4cp7_pocket.pdb
REMARK  236 active torsions:
REMARK  status: ('A' for Active; 'I' for Inactive)
REMARK    1  A    between atoms: _1  and  _3
REMARK    2  A    between atoms: _3  and  _4
REMARK    3  A    between atoms: _3  and  _6
REMARK    4  A    between atoms: _6  and  _7
REMARK    5  A    between atoms: _7  and  _8
REMARK    6  A    between atoms: _8  and  _9
REMARK    7  A    between atoms: _18  and  _20
REMARK    8  A    between atoms: _20  and  _21
REMARK    9  A    between atoms: _20  and  _23
REMARK   10  A    between atoms: _23  and  _24
REMARK   11  A    between atoms: _27  and  _29
REMARK   12  A    between atoms: _29  and  _30
REMARK   13  A    between atoms: _29  and  _32
REMARK   14  A    between atoms: _32  and  _33
REMARK   15  A    between atoms: _36  and  _38
REMARK   16  A    between atoms: _38  and  _39
REMARK   17  A    between atoms: _38  and  _41
REMARK   18  A    between atoms: _41  and  _42
REMARK   19  A    between atoms: _45  and  _47
REMARK   20  A    between atoms: _47  and  _48
REMARK   21  A    between atoms: _47  and  _50
REMARK   22  A    between atoms: _50  and  _51
REMARK   23  A    between atoms: _54  and  _56
REMARK   24  A    between atoms: _56  and  _57
REMARK   25  A    between atoms: _59  and  _61
REMARK   26  A    between atoms: _61  and  _62
REMARK   27  A    between atoms: _65  and  _67
REMARK   28  A    between atoms: _67  and  _68
REMARK   29  A    between atoms: _67  and  _70
REMARK   30  A    between atoms: _70  and  _71
REMARK   31  A    between atoms: _74  and  _76
REMARK   32  A    between atoms: _76  and  _77
REMARK   33  A    between atoms: _76  and  _79
REMARK   34  A    between atoms: _79  and  _80
REMARK   35  A    between atoms: _83  and  _85
REMARK   36  A    between atoms: _85  and  _86
REMARK   37  A    between atoms: _85  and  _88
REMARK   38  A    between atoms: _88  and  _89
REMARK   39  A    between atoms: _92  and  _94
REMARK   40  A    between atoms: _94  and  _95
REMARK   41  A    between atoms: _94  and  _97
REMARK   42  A    between atoms: _100  and  _102
REMARK   43  A    between atoms: _102  and  _103
REMARK   44  A    between atoms: _102  and  _105
REMARK   45  A    between atoms: _105  and  _106
REMARK   46  A    between atoms: _106  and  _107
REMARK   47  A    between atoms: _107  and  _108
REMARK   48  A    between atoms: _108  and  _109
REMARK   49  A    between atoms: _113  and  _115
REMARK   50  A    between atoms: _115  and  _116
REMARK   51  A    between atoms: _115  and  _118
REMARK   52  A    between atoms: _118  and  _119
REMARK   53  A    between atoms: _119  and  _120
REMARK   54  A    between atoms: _122  and  _124
REMARK   55  A    between atoms: _124  and  _125
REMARK   56  A    between atoms: _124  and  _127
REMARK   57  A    between atoms: _127  and  _128
REMARK   58  A    between atoms: _131  and  _133
REMARK   59  A    between atoms: _133  and  _134
REMARK   60  A    between atoms: _136  and  _138
REMARK   61  A    between atoms: _138  and  _139
REMARK   62  A    between atoms: _141  and  _143
REMARK   63  A    between atoms: _143  and  _144
REMARK   64  A    between atoms: _143  and  _146
REMARK   65  A    between atoms: _146  and  _147
REMARK   66  A    between atoms: _150  and  _152
REMARK   67  A    between atoms: _152  and  _153
REMARK   68  A    between atoms: _155  and  _157
REMARK   69  A    between atoms: _157  and  _158
REMARK   70  A    between atoms: _160  and  _162
REMARK   71  A    between atoms: _162  and  _163
REMARK   72  A    between atoms: _162  and  _165
REMARK   73  A    between atoms: _165  and  _166
REMARK   74  A    between atoms: _172  and  _174
REMARK   75  A    between atoms: _174  and  _175
REMARK   76  A    between atoms: _174  and  _177
REMARK   77  A    between atoms: _177  and  _178
REMARK   78  A    between atoms: _181  and  _183
REMARK   79  A    between atoms: _183  and  _184
REMARK   80  A    between atoms: _183  and  _186
REMARK   81  A    between atoms: _186  and  _187
REMARK   82  A    between atoms: _190  and  _192
REMARK   83  A    between atoms: _192  and  _193
REMARK   84  A    between atoms: _192  and  _195
REMARK   85  A    between atoms: _195  and  _196
REMARK   86  A    between atoms: _200  and  _201
REMARK   87  A    between atoms: _206  and  _208
REMARK   88  A    between atoms: _208  and  _209
REMARK   89  A    between atoms: _208  and  _211
REMARK   90  A    between atoms: _211  and  _212
REMARK   91  A    between atoms: _215  and  _217
REMARK   92  A    between atoms: _217  and  _218
REMARK   93  A    between atoms: _217  and  _220
REMARK   94  A    between atoms: _220  and  _221
REMARK   95  A    between atoms: _226  and  _228
REMARK   96  A    between atoms: _228  and  _229
REMARK   97  A    between atoms: _228  and  _231
REMARK   98  A    between atoms: _234  and  _236
REMARK   99  A    between atoms: _236  and  _237
REMARK  100  A    between atoms: _236  and  _239
REMARK  101  A    between atoms: _239  and  _240
REMARK  102  A    between atoms: _243  and  _245
REMARK  103  A    between atoms: _245  and  _246
REMARK  104  A    between atoms: _248  and  _250
REMARK  105  A    between atoms: _250  and  _251
REMARK  106  A    between atoms: _250  and  _253
REMARK  107  A    between atoms: _253  and  _254
REMARK  108  A    between atoms: _254  and  _255
REMARK  109  A    between atoms: _255  and  _256
REMARK  110  A    between atoms: _265  and  _267
REMARK  111  A    between atoms: _267  and  _268
REMARK  112  A    between atoms: _267  and  _270
REMARK  113  A    between atoms: _270  and  _271
REMARK  114  A    between atoms: _276  and  _278
REMARK  115  A    between atoms: _278  and  _279
REMARK  116  A    between atoms: _278  and  _281
REMARK  117  A    between atoms: _281  and  _282
REMARK  118  A    between atoms: _282  and  _283
REMARK  119  A    between atoms: _283  and  _284
REMARK  120  A    between atoms: _293  and  _295
REMARK  121  A    between atoms: _295  and  _296
REMARK  122  A    between atoms: _295  and  _298
REMARK  123  A    between atoms: _298  and  _299
REMARK  124  A    between atoms: _302  and  _304
REMARK  125  A    between atoms: _304  and  _305
REMARK  126  A    between atoms: _304  and  _307
REMARK  127  A    between atoms: _307  and  _308
REMARK  128  A    between atoms: _311  and  _313
REMARK  129  A    between atoms: _313  and  _314
REMARK  130  A    between atoms: _313  and  _316
REMARK  131  A    between atoms: _316  and  _317
REMARK  132  A    between atoms: _320  and  _322
REMARK  133  A    between atoms: _322  and  _323
REMARK  134  A    between atoms: _322  and  _325
REMARK  135  A    between atoms: _325  and  _326
REMARK  136  A    between atoms: _329  and  _331
REMARK  137  A    between atoms: _331  and  _332
REMARK  138  A    between atoms: _331  and  _334
REMARK  139  A    between atoms: _334  and  _335
REMARK  140  A    between atoms: _338  and  _340
REMARK  141  A    between atoms: _340  and  _341
REMARK  142  A    between atoms: _343  and  _345
REMARK  143  A    between atoms: _345  and  _346
REMARK  144  A    between atoms: _349  and  _351
REMARK  145  A    between atoms: _351  and  _352
REMARK  146  A    between atoms: _351  and  _354
REMARK  147  A    between atoms: _354  and  _355
REMARK  148  A    between atoms: _358  and  _360
REMARK  149  A    between atoms: _360  and  _361
REMARK  150  A    between atoms: _360  and  _363
REMARK  151  A    between atoms: _363  and  _364
REMARK  152  A    between atoms: _367  and  _369
REMARK  153  A    between atoms: _369  and  _370
REMARK  154  A    between atoms: _369  and  _372
REMARK  155  A    between atoms: _372  and  _373
REMARK  156  A    between atoms: _376  and  _378
REMARK  157  A    between atoms: _378  and  _379
REMARK  158  A    between atoms: _378  and  _381
REMARK  159  A    between atoms: _384  and  _386
REMARK  160  A    between atoms: _386  and  _387
REMARK  161  A    between atoms: _386  and  _389
REMARK  162  A    between atoms: _389  and  _390
REMARK  163  A    between atoms: _390  and  _391
REMARK  164  A    between atoms: _394  and  _396
REMARK  165  A    between atoms: _396  and  _397
REMARK  166  A    between atoms: _396  and  _399
REMARK  167  A    between atoms: _399  and  _400
REMARK  168  A    between atoms: _400  and  _401
REMARK  169  A    between atoms: _401  and  _402
REMARK  170  A    between atoms: _402  and  _403
REMARK  171  A    between atoms: _407  and  _409
REMARK  172  A    between atoms: _409  and  _410
REMARK  173  A    between atoms: _409  and  _412
REMARK  174  A    between atoms: _412  and  _413
REMARK  175  A    between atoms: _413  and  _414
REMARK  176  A    between atoms: _416  and  _418
REMARK  177  A    between atoms: _418  and  _419
REMARK  178  A    between atoms: _418  and  _421
REMARK  179  A    between atoms: _421  and  _422
REMARK  180  A    between atoms: _425  and  _427
REMARK  181  A    between atoms: _427  and  _428
REMARK  182  A    between atoms: _430  and  _432
REMARK  183  A    between atoms: _432  and  _433
REMARK  184  A    between atoms: _435  and  _437
REMARK  185  A    between atoms: _437  and  _438
REMARK  186  A    between atoms: _437  and  _440
REMARK  187  A    between atoms: _440  and  _441
REMARK  188  A    between atoms: _444  and  _446
REMARK  189  A    between atoms: _446  and  _447
REMARK  190  A    between atoms: _449  and  _451
REMARK  191  A    between atoms: _451  and  _452
REMARK  192  A    between atoms: _454  and  _456
REMARK  193  A    between atoms: _456  and  _457
REMARK  194  A    between atoms: _456  and  _459
REMARK  195  A    between atoms: _459  and  _460
REMARK  196  A    between atoms: _466  and  _468
REMARK  197  A    between atoms: _468  and  _469
REMARK  198  A    between atoms: _468  and  _471
REMARK  199  A    between atoms: _471  and  _472
REMARK  200  A    between atoms: _475  and  _477
REMARK  201  A    between atoms: _477  and  _478
REMARK  202  A    between atoms: _477  and  _480
REMARK  203  A    between atoms: _483  and  _485
REMARK  204  A    between atoms: _485  and  _486
REMARK  205  A    between atoms: _485  and  _488
REMARK  206  A    between atoms: _488  and  _489
REMARK  207  A    between atoms: _492  and  _494
REMARK  208  A    between atoms: _494  and  _495
REMARK  209  A    between atoms: _494  and  _497
REMARK  210  A    between atoms: _495  and  _496
REMARK  211  A    between atoms: _495  and  _501
REMARK  212  A    between atoms: _497  and  _498
REMARK  213  A    between atoms: _502  and  _503
REMARK  214  A    between atoms: _508  and  _510
REMARK  215  A    between atoms: _510  and  _511
REMARK  216  A    between atoms: _510  and  _513
REMARK  217  A    between atoms: _513  and  _514
REMARK  218  A    between atoms: _517  and  _519
REMARK  219  A    between atoms: _519  and  _520
REMARK  220  A    between atoms: _519  and  _522
REMARK  221  A    between atoms: _522  and  _523
REMARK  222  A    between atoms: _528  and  _530
REMARK  223  A    between atoms: _530  and  _531
REMARK  224  A    between atoms: _530  and  _533
REMARK  225  A    between atoms: _536  and  _538
REMARK  226  A    between atoms: _538  and  _539
REMARK  227  A    between atoms: _538  and  _541
REMARK  228  A    between atoms: _541  and  _542
REMARK  229  A    between atoms: _545  and  _547
REMARK  230  A    between atoms: _547  and  _548
REMARK  231  A    between atoms: _550  and  _552
REMARK  232  A    between atoms: _552  and  _553
REMARK  233  A    between atoms: _552  and  _555
REMARK  234  A    between atoms: _555  and  _556
REMARK  235  A    between atoms: _556  and  _557
REMARK  236  A    between atoms: _557  and  _558
REMARK                            x       y       z     vdW  Elec       q    Type
REMARK                         _______ _______ _______ _____ _____    ______ ____
ROOT
ATOM      1  O   HOH     1      18.236  15.163   6.063  0.00  0.00    +0.000 OA
ENDROOT
TORSDOF 0
REMARK  Name = ../refined-set-2016/4cp7/4cp7_pocket.pdb
REMARK  236 active torsions:
REMARK  status: ('A' for Active; 'I' for Inactive)
REMARK    1  A    between atoms: _1  and  _3
REMARK    2  A    between atoms: _3  and  _4
REMARK    3  A    between atoms: _3  and  _6
REMARK    4  A    between atoms: _6  and  _7
REMARK    5  A    between atoms: _7  and  _8
REMARK    6  A    between atoms: _8  and  _9
REMARK    7  A    between atoms: _18  and  _20
REMARK    8  A    between atoms: _20  and  _21
REMARK    9  A    between atoms: _20  and  _23
REMARK   10  A    between atoms: _23  and  _24
REMARK   11  A    between atoms: _27  and  _29
REMARK   12  A    between atoms: _29  and  _30
REMARK   13  A    between atoms: _29  and  _32
REMARK   14  A    between atoms: _32  and  _33
REMARK   15  A    between atoms: _36  and  _38
REMARK   16  A    between atoms: _38  and  _39
REMARK   17  A    between atoms: _38  and  _41
REMARK   18  A    between atoms: _41  and  _42
REMARK   19  A    between atoms: _45  and  _47
REMARK   20  A    between atoms: _47  and  _48
REMARK   21  A    between atoms: _47  and  _50
REMARK   22  A    between atoms: _50  and  _51
REMARK   23  A    between atoms: _54  and  _56
REMARK   24  A    between atoms: _56  and  _57
REMARK   25  A    between atoms: _59  and  _61
REMARK   26  A    between atoms: _61  and  _62
REMARK   27  A    between atoms: _65  and  _67
REMARK   28  A    between atoms: _67  and  _68
REMARK   29  A    between atoms: _67  and  _70
REMARK   30  A    between atoms: _70  and  _71
REMARK   31  A    between atoms: _74  and  _76
REMARK   32  A    between atoms: _76  and  _77
REMARK   33  A    between atoms: _76  and  _79
REMARK   34  A    between atoms: _79  and  _80
REMARK   35  A    between atoms: _83  and  _85
REMARK   36  A    between atoms: _85  and  _86
REMARK   37  A    between atoms: _85  and  _88
REMARK   38  A    between atoms: _88  and  _89
REMARK   39  A    between atoms: _92  and  _94
REMARK   40  A    between atoms: _94  and  _95
REMARK   41  A    between atoms: _94  and  _97
REMARK   42  A    between atoms: _100  and  _102
REMARK   43  A    between atoms: _102  and  _103
REMARK   44  A    between atoms: _102  and  _105
REMARK   45  A    between atoms: _105  and  _106
REMARK   46  A    between atoms: _106  and  _107
REMARK   47  A    between atoms: _107  and  _108
REMARK   48  A    between atoms: _108  and  _109
REMARK   49  A    between atoms: _113  and  _115
REMARK   50  A    between atoms: _115  and  _116
REMARK   51  A    between atoms: _115  and  _118
REMARK   52  A    between atoms: _118  and  _119
REMARK   53  A    between atoms: _119  and  _120
REMARK   54  A    between atoms: _122  and  _124
REMARK   55  A    between atoms: _124  and  _125
REMARK   56  A    between atoms: _124  and  _127
REMARK   57  A    between atoms: _127  and  _128
REMARK   58  A    between atoms: _131  and  _133
REMARK   59  A    between atoms: _133  and  _134
REMARK   60  A    between atoms: _136  and  _138
REMARK   61  A    between atoms: _138  and  _139
REMARK   62  A    between atoms: _141  and  _143
REMARK   63  A    between atoms: _143  and  _144
REMARK   64  A    between atoms: _143  and  _146
REMARK   65  A    between atoms: _146  and  _147
REMARK   66  A    between atoms: _150  and  _152
REMARK   67  A    between atoms: _152  and  _153
REMARK   68  A    between atoms: _155  and  _157
REMARK   69  A    between atoms: _157  and  _158
REMARK   70  A    between atoms: _160  and  _162
REMARK   71  A    between atoms: _162  and  _163
REMARK   72  A    between atoms: _162  and  _165
REMARK   73  A    between atoms: _165  and  _166
REMARK   74  A    between atoms: _172  and  _174
REMARK   75  A    between atoms: _174  and  _175
REMARK   76  A    between atoms: _174  and  _177
REMARK   77  A    between atoms: _177  and  _178
REMARK   78  A    between atoms: _181  and  _183
REMARK   79  A    between atoms: _183  and  _184
REMARK   80  A    between atoms: _183  and  _186
REMARK   81  A    between atoms: _186  and  _187
REMARK   82  A    between atoms: _190  and  _192
REMARK   83  A    between atoms: _192  and  _193
REMARK   84  A    between atoms: _192  and  _195
REMARK   85  A    between atoms: _195  and  _196
REMARK   86  A    between atoms: _200  and  _201
REMARK   87  A    between atoms: _206  and  _208
REMARK   88  A    between atoms: _208  and  _209
REMARK   89  A    between atoms: _208  and  _211
REMARK   90  A    between atoms: _211  and  _212
REMARK   91  A    between atoms: _215  and  _217
REMARK   92  A    between atoms: _217  and  _218
REMARK   93  A    between atoms: _217  and  _220
REMARK   94  A    between atoms: _220  and  _221
REMARK   95  A    between atoms: _226  and  _228
REMARK   96  A    between atoms: _228  and  _229
REMARK   97  A    between atoms: _228  and  _231
REMARK   98  A    between atoms: _234  and  _236
REMARK   99  A    between atoms: _236  and  _237
REMARK  100  A    between atoms: _236  and  _239
REMARK  101  A    between atoms: _239  and  _240
REMARK  102  A    between atoms: _243  and  _245
REMARK  103  A    between atoms: _245  and  _246
REMARK  104  A    between atoms: _248  and  _250
REMARK  105  A    between atoms: _250  and  _251
REMARK  106  A    between atoms: _250  and  _253
REMARK  107  A    between atoms: _253  and  _254
REMARK  108  A    between atoms: _254  and  _255
REMARK  109  A    between atoms: _255  and  _256
REMARK  110  A    between atoms: _265  and  _267
REMARK  111  A    between atoms: _267  and  _268
REMARK  112  A    between atoms: _267  and  _270
REMARK  113  A    between atoms: _270  and  _271
REMARK  114  A    between atoms: _276  and  _278
REMARK  115  A    between atoms: _278  and  _279
REMARK  116  A    between atoms: _278  and  _281
REMARK  117  A    between atoms: _281  and  _282
REMARK  118  A    between atoms: _282  and  _283
REMARK  119  A    between atoms: _283  and  _284
REMARK  120  A    between atoms: _293  and  _295
REMARK  121  A    between atoms: _295  and  _296
REMARK  122  A    between atoms: _295  and  _298
REMARK  123  A    between atoms: _298  and  _299
REMARK  124  A    between atoms: _302  and  _304
REMARK  125  A    between atoms: _304  and  _305
REMARK  126  A    between atoms: _304  and  _307
REMARK  127  A    between atoms: _307  and  _308
REMARK  128  A    between atoms: _311  and  _313
REMARK  129  A    between atoms: _313  and  _314
REMARK  130  A    between atoms: _313  and  _316
REMARK  131  A    between atoms: _316  and  _317
REMARK  132  A    between atoms: _320  and  _322
REMARK  133  A    between atoms: _322  and  _323
REMARK  134  A    between atoms: _322  and  _325
REMARK  135  A    between atoms: _325  and  _326
REMARK  136  A    between atoms: _329  and  _331
REMARK  137  A    between atoms: _331  and  _332
REMARK  138  A    between atoms: _331  and  _334
REMARK  139  A    between atoms: _334  and  _335
REMARK  140  A    between atoms: _338  and  _340
REMARK  141  A    between atoms: _340  and  _341
REMARK  142  A    between atoms: _343  and  _345
REMARK  143  A    between atoms: _345  and  _346
REMARK  144  A    between atoms: _349  and  _351
REMARK  145  A    between atoms: _351  and  _352
REMARK  146  A    between atoms: _351  and  _354
REMARK  147  A    between atoms: _354  and  _355
REMARK  148  A    between atoms: _358  and  _360
REMARK  149  A    between atoms: _360  and  _361
REMARK  150  A    between atoms: _360  and  _363
REMARK  151  A    between atoms: _363  and  _364
REMARK  152  A    between atoms: _367  and  _369
REMARK  153  A    between atoms: _369  and  _370
REMARK  154  A    between atoms: _369  and  _372
REMARK  155  A    between atoms: _372  and  _373
REMARK  156  A    between atoms: _376  and  _378
REMARK  157  A    between atoms: _378  and  _379
REMARK  158  A    between atoms: _378  and  _381
REMARK  159  A    between atoms: _384  and  _386
REMARK  160  A    between atoms: _386  and  _387
REMARK  161  A    between atoms: _386  and  _389
REMARK  162  A    between atoms: _389  and  _390
REMARK  163  A    between atoms: _390  and  _391
REMARK  164  A    between atoms: _394  and  _396
REMARK  165  A    between atoms: _396  and  _397
REMARK  166  A    between atoms: _396  and  _399
REMARK  167  A    between atoms: _399  and  _400
REMARK  168  A    between atoms: _400  and  _401
REMARK  169  A    between atoms: _401  and  _402
REMARK  170  A    between atoms: _402  and  _403
REMARK  171  A    between atoms: _407  and  _409
REMARK  172  A    between atoms: _409  and  _410
REMARK  173  A    between atoms: _409  and  _412
REMARK  174  A    between atoms: _412  and  _413
REMARK  175  A    between atoms: _413  and  _414
REMARK  176  A    between atoms: _416  and  _418
REMARK  177  A    between atoms: _418  and  _419
REMARK  178  A    between atoms: _418  and  _421
REMARK  179  A    between atoms: _421  and  _422
REMARK  180  A    between atoms: _425  and  _427
REMARK  181  A    between atoms: _427  and  _428
REMARK  182  A    between atoms: _430  and  _432
REMARK  183  A    between atoms: _432  and  _433
REMARK  184  A    between atoms: _435  and  _437
REMARK  185  A    between atoms: _437  and  _438
REMARK  186  A    between atoms: _437  and  _440
REMARK  187  A    between atoms: _440  and  _441
REMARK  188  A    between atoms: _444  and  _446
REMARK  189  A    between atoms: _446  and  _447
REMARK  190  A    between atoms: _449  and  _451
REMARK  191  A    between atoms: _451  and  _452
REMARK  192  A    between atoms: _454  and  _456
REMARK  193  A    between atoms: _456  and  _457
REMARK  194  A    between atoms: _456  and  _459
REMARK  195  A    between atoms: _459  and  _460
REMARK  196  A    between atoms: _466  and  _468
REMARK  197  A    between atoms: _468  and  _469
REMARK  198  A    between atoms: _468  and  _471
REMARK  199  A    between atoms: _471  and  _472
REMARK  200  A    between atoms: _475  and  _477
REMARK  201  A    between atoms: _477  and  _478
REMARK  202  A    between atoms: _477  and  _480
REMARK  203  A    between atoms: _483  and  _485
REMARK  204  A    between atoms: _485  and  _486
REMARK  205  A    between atoms: _485  and  _488
REMARK  206  A    between atoms: _488  and  _489
REMARK  207  A    between atoms: _492  and  _494
REMARK  208  A    between atoms: _494  and  _495
REMARK  209  A    between atoms: _494  and  _497
REMARK  210  A    between atoms: _495  and  _496
REMARK  211  A    between atoms: _495  and  _501
REMARK  212  A    between atoms: _497  and  _498
REMARK  213  A    between atoms: _502  and  _503
REMARK  214  A    between atoms: _508  and  _510
REMARK  215  A    between atoms: _510  and  _511
REMARK  216  A    between atoms: _510  and  _513
REMARK  217  A    between atoms: _513  and  _514
REMARK  218  A    between atoms: _517  and  _519
REMARK  219  A    between atoms: _519  and  _520
REMARK  220  A    between atoms: _519  and  _522
REMARK  221  A    between atoms: _522  and  _523
REMARK  222  A    between atoms: _528  and  _530
REMARK  223  A    between atoms: _530  and  _531
REMARK  224  A    between atoms: _530  and  _533
REMARK  225  A    between atoms: _536  and  _538
REMARK  226  A    between atoms: _538  and  _539
REMARK  227  A    between atoms: _538  and  _541
REMARK  228  A    between atoms: _541  and  _542
REMARK  229  A    between atoms: _545  and  _547
REMARK  230  A    between atoms: _547  and  _548
REMARK  231  A    between atoms: _550  and  _552
REMARK  232  A    between atoms: _552  and  _553
REMARK  233  A    between atoms: _552  and  _555
REMARK  234  A    between atoms: _555  and  _556
REMARK  235  A    between atoms: _556  and  _557
REMARK  236  A    between atoms: _557  and  _558
REMARK                            x       y       z     vdW  Elec       q    Type
REMARK                         _______ _______ _______ _____ _____    ______ ____
ROOT
ATOM      1  O   HOH     1      22.558  14.443   7.078  0.00  0.00    +0.000 OA
ENDROOT
TORSDOF 0
REMARK  Name = ../refined-set-2016/4cp7/4cp7_pocket.pdb
REMARK  236 active torsions:
REMARK  status: ('A' for Active; 'I' for Inactive)
REMARK    1  A    between atoms: _1  and  _3
REMARK    2  A    between atoms: _3  and  _4
REMARK    3  A    between atoms: _3  and  _6
REMARK    4  A    between atoms: _6  and  _7
REMARK    5  A    between atoms: _7  and  _8
REMARK    6  A    between atoms: _8  and  _9
REMARK    7  A    between atoms: _18  and  _20
REMARK    8  A    between atoms: _20  and  _21
REMARK    9  A    between atoms: _20  and  _23
REMARK   10  A    between atoms: _23  and  _24
REMARK   11  A    between atoms: _27  and  _29
REMARK   12  A    between atoms: _29  and  _30
REMARK   13  A    between atoms: _29  and  _32
REMARK   14  A    between atoms: _32  and  _33
REMARK   15  A    between atoms: _36  and  _38
REMARK   16  A    between atoms: _38  and  _39
REMARK   17  A    between atoms: _38  and  _41
REMARK   18  A    between atoms: _41  and  _42
REMARK   19  A    between atoms: _45  and  _47
REMARK   20  A    between atoms: _47  and  _48
REMARK   21  A    between atoms: _47  and  _50
REMARK   22  A    between atoms: _50  and  _51
REMARK   23  A    between atoms: _54  and  _56
REMARK   24  A    between atoms: _56  and  _57
REMARK   25  A    between atoms: _59  and  _61
REMARK   26  A    between atoms: _61  and  _62
REMARK   27  A    between atoms: _65  and  _67
REMARK   28  A    between atoms: _67  and  _68
REMARK   29  A    between atoms: _67  and  _70
REMARK   30  A    between atoms: _70  and  _71
REMARK   31  A    between atoms: _74  and  _76
REMARK   32  A    between atoms: _76  and  _77
REMARK   33  A    between atoms: _76  and  _79
REMARK   34  A    between atoms: _79  and  _80
REMARK   35  A    between atoms: _83  and  _85
REMARK   36  A    between atoms: _85  and  _86
REMARK   37  A    between atoms: _85  and  _88
REMARK   38  A    between atoms: _88  and  _89
REMARK   39  A    between atoms: _92  and  _94
REMARK   40  A    between atoms: _94  and  _95
REMARK   41  A    between atoms: _94  and  _97
REMARK   42  A    between atoms: _100  and  _102
REMARK   43  A    between atoms: _102  and  _103
REMARK   44  A    between atoms: _102  and  _105
REMARK   45  A    between atoms: _105  and  _106
REMARK   46  A    between atoms: _106  and  _107
REMARK   47  A    between atoms: _107  and  _108
REMARK   48  A    between atoms: _108  and  _109
REMARK   49  A    between atoms: _113  and  _115
REMARK   50  A    between atoms: _115  and  _116
REMARK   51  A    between atoms: _115  and  _118
REMARK   52  A    between atoms: _118  and  _119
REMARK   53  A    between atoms: _119  and  _120
REMARK   54  A    between atoms: _122  and  _124
REMARK   55  A    between atoms: _124  and  _125
REMARK   56  A    between atoms: _124  and  _127
REMARK   57  A    between atoms: _127  and  _128
REMARK   58  A    between atoms: _131  and  _133
REMARK   59  A    between atoms: _133  and  _134
REMARK   60  A    between atoms: _136  and  _138
REMARK   61  A    between atoms: _138  and  _139
REMARK   62  A    between atoms: _141  and  _143
REMARK   63  A    between atoms: _143  and  _144
REMARK   64  A    between atoms: _143  and  _146
REMARK   65  A    between atoms: _146  and  _147
REMARK   66  A    between atoms: _150  and  _152
REMARK   67  A    between atoms: _152  and  _153
REMARK   68  A    between atoms: _155  and  _157
REMARK   69  A    between atoms: _157  and  _158
REMARK   70  A    between atoms: _160  and  _162
REMARK   71  A    between atoms: _162  and  _163
REMARK   72  A    between atoms: _162  and  _165
REMARK   73  A    between atoms: _165  and  _166
REMARK   74  A    between atoms: _172  and  _174
REMARK   75  A    between atoms: _174  and  _175
REMARK   76  A    between atoms: _174  and  _177
REMARK   77  A    between atoms: _177  and  _178
REMARK   78  A    between atoms: _181  and  _183
REMARK   79  A    between atoms: _183  and  _184
REMARK   80  A    between atoms: _183  and  _186
REMARK   81  A    between atoms: _186  and  _187
REMARK   82  A    between atoms: _190  and  _192
REMARK   83  A    between atoms: _192  and  _193
REMARK   84  A    between atoms: _192  and  _195
REMARK   85  A    between atoms: _195  and  _196
REMARK   86  A    between atoms: _200  and  _201
REMARK   87  A    between atoms: _206  and  _208
REMARK   88  A    between atoms: _208  and  _209
REMARK   89  A    between atoms: _208  and  _211
REMARK   90  A    between atoms: _211  and  _212
REMARK   91  A    between atoms: _215  and  _217
REMARK   92  A    between atoms: _217  and  _218
REMARK   93  A    between atoms: _217  and  _220
REMARK   94  A    between atoms: _220  and  _221
REMARK   95  A    between atoms: _226  and  _228
REMARK   96  A    between atoms: _228  and  _229
REMARK   97  A    between atoms: _228  and  _231
REMARK   98  A    between atoms: _234  and  _236
REMARK   99  A    between atoms: _236  and  _237
REMARK  100  A    between atoms: _236  and  _239
REMARK  101  A    between atoms: _239  and  _240
REMARK  102  A    between atoms: _243  and  _245
REMARK  103  A    between atoms: _245  and  _246
REMARK  104  A    between atoms: _248  and  _250
REMARK  105  A    between atoms: _250  and  _251
REMARK  106  A    between atoms: _250  and  _253
REMARK  107  A    between atoms: _253  and  _254
REMARK  108  A    between atoms: _254  and  _255
REMARK  109  A    between atoms: _255  and  _256
REMARK  110  A    between atoms: _265  and  _267
REMARK  111  A    between atoms: _267  and  _268
REMARK  112  A    between atoms: _267  and  _270
REMARK  113  A    between atoms: _270  and  _271
REMARK  114  A    between atoms: _276  and  _278
REMARK  115  A    between atoms: _278  and  _279
REMARK  116  A    between atoms: _278  and  _281
REMARK  117  A    between atoms: _281  and  _282
REMARK  118  A    between atoms: _282  and  _283
REMARK  119  A    between atoms: _283  and  _284
REMARK  120  A    between atoms: _293  and  _295
REMARK  121  A    between atoms: _295  and  _296
REMARK  122  A    between atoms: _295  and  _298
REMARK  123  A    between atoms: _298  and  _299
REMARK  124  A    between atoms: _302  and  _304
REMARK  125  A    between atoms: _304  and  _305
REMARK  126  A    between atoms: _304  and  _307
REMARK  127  A    between atoms: _307  and  _308
REMARK  128  A    between atoms: _311  and  _313
REMARK  129  A    between atoms: _313  and  _314
REMARK  130  A    between atoms: _313  and  _316
REMARK  131  A    between atoms: _316  and  _317
REMARK  132  A    between atoms: _320  and  _322
REMARK  133  A    between atoms: _322  and  _323
REMARK  134  A    between atoms: _322  and  _325
REMARK  135  A    between atoms: _325  and  _326
REMARK  136  A    between atoms: _329  and  _331
REMARK  137  A    between atoms: _331  and  _332
REMARK  138  A    between atoms: _331  and  _334
REMARK  139  A    between atoms: _334  and  _335
REMARK  140  A    between atoms: _338  and  _340
REMARK  141  A    between atoms: _340  and  _341
REMARK  142  A    between atoms: _343  and  _345
REMARK  143  A    between atoms: _345  and  _346
REMARK  144  A    between atoms: _349  and  _351
REMARK  145  A    between atoms: _351  and  _352
REMARK  146  A    between atoms: _351  and  _354
REMARK  147  A    between atoms: _354  and  _355
REMARK  148  A    between atoms: _358  and  _360
REMARK  149  A    between atoms: _360  and  _361
REMARK  150  A    between atoms: _360  and  _363
REMARK  151  A    between atoms: _363  and  _364
REMARK  152  A    between atoms: _367  and  _369
REMARK  153  A    between atoms: _369  and  _370
REMARK  154  A    between atoms: _369  and  _372
REMARK  155  A    between atoms: _372  and  _373
REMARK  156  A    between atoms: _376  and  _378
REMARK  157  A    between atoms: _378  and  _379
REMARK  158  A    between atoms: _378  and  _381
REMARK  159  A    between atoms: _384  and  _386
REMARK  160  A    between atoms: _386  and  _387
REMARK  161  A    between atoms: _386  and  _389
REMARK  162  A    between atoms: _389  and  _390
REMARK  163  A    between atoms: _390  and  _391
REMARK  164  A    between atoms: _394  and  _396
REMARK  165  A    between atoms: _396  and  _397
REMARK  166  A    between atoms: _396  and  _399
REMARK  167  A    between atoms: _399  and  _400
REMARK  168  A    between atoms: _400  and  _401
REMARK  169  A    between atoms: _401  and  _402
REMARK  170  A    between atoms: _402  and  _403
REMARK  171  A    between atoms: _407  and  _409
REMARK  172  A    between atoms: _409  and  _410
REMARK  173  A    between atoms: _409  and  _412
REMARK  174  A    between atoms: _412  and  _413
REMARK  175  A    between atoms: _413  and  _414
REMARK  176  A    between atoms: _416  and  _418
REMARK  177  A    between atoms: _418  and  _419
REMARK  178  A    between atoms: _418  and  _421
REMARK  179  A    between atoms: _421  and  _422
REMARK  180  A    between atoms: _425  and  _427
REMARK  181  A    between atoms: _427  and  _428
REMARK  182  A    between atoms: _430  and  _432
REMARK  183  A    between atoms: _432  and  _433
REMARK  184  A    between atoms: _435  and  _437
REMARK  185  A    between atoms: _437  and  _438
REMARK  186  A    between atoms: _437  and  _440
REMARK  187  A    between atoms: _440  and  _441
REMARK  188  A    between atoms: _444  and  _446
REMARK  189  A    between atoms: _446  and  _447
REMARK  190  A    between atoms: _449  and  _451
REMARK  191  A    between atoms: _451  and  _452
REMARK  192  A    between atoms: _454  and  _456
REMARK  193  A    between atoms: _456  and  _457
REMARK  194  A    between atoms: _456  and  _459
REMARK  195  A    between atoms: _459  and  _460
REMARK  196  A    between atoms: _466  and  _468
REMARK  197  A    between atoms: _468  and  _469
REMARK  198  A    between atoms: _468  and  _471
REMARK  199  A    between atoms: _471  and  _472
REMARK  200  A    between atoms: _475  and  _477
REMARK  201  A    between atoms: _477  and  _478
REMARK  202  A    between atoms: _477  and  _480
REMARK  203  A    between atoms: _483  and  _485
REMARK  204  A    between atoms: _485  and  _486
REMARK  205  A    between atoms: _485  and  _488
REMARK  206  A    between atoms: _488  and  _489
REMARK  207  A    between atoms: _492  and  _494
REMARK  208  A    between atoms: _494  and  _495
REMARK  209  A    between atoms: _494  and  _497
REMARK  210  A    between atoms: _495  and  _496
REMARK  211  A    between atoms: _495  and  _501
REMARK  212  A    between atoms: _497  and  _498
REMARK  213  A    between atoms: _502  and  _503
REMARK  214  A    between atoms: _508  and  _510
REMARK  215  A    between atoms: _510  and  _511
REMARK  216  A    between atoms: _510  and  _513
REMARK  217  A    between atoms: _513  and  _514
REMARK  218  A    between atoms: _517  and  _519
REMARK  219  A    between atoms: _519  and  _520
REMARK  220  A    between atoms: _519  and  _522
REMARK  221  A    between atoms: _522  and  _523
REMARK  222  A    between atoms: _528  and  _530
REMARK  223  A    between atoms: _530  and  _531
REMARK  224  A    between atoms: _530  and  _533
REMARK  225  A    between atoms: _536  and  _538
REMARK  226  A    between atoms: _538  and  _539
REMARK  227  A    between atoms: _538  and  _541
REMARK  228  A    between atoms: _541  and  _542
REMARK  229  A    between atoms: _545  and  _547
REMARK  230  A    between atoms: _547  and  _548
REMARK  231  A    between atoms: _550  and  _552
REMARK  232  A    between atoms: _552  and  _553
REMARK  233  A    between atoms: _552  and  _555
REMARK  234  A    between atoms: _555  and  _556
REMARK  235  A    between atoms: _556  and  _557
REMARK  236  A    between atoms: _557  and  _558
REMARK                            x       y       z     vdW  Elec       q    Type
REMARK                         _______ _______ _______ _____ _____    ______ ____
ROOT
ATOM      1  O   HOH     1       7.260  23.990  -6.386  0.00  0.00    +0.000 OA
ENDROOT
TORSDOF 0
REMARK  Name = ../refined-set-2016/4cp7/4cp7_pocket.pdb
REMARK  236 active torsions:
REMARK  status: ('A' for Active; 'I' for Inactive)
REMARK    1  A    between atoms: _1  and  _3
REMARK    2  A    between atoms: _3  and  _4
REMARK    3  A    between atoms: _3  and  _6
REMARK    4  A    between atoms: _6  and  _7
REMARK    5  A    between atoms: _7  and  _8
REMARK    6  A    between atoms: _8  and  _9
REMARK    7  A    between atoms: _18  and  _20
REMARK    8  A    between atoms: _20  and  _21
REMARK    9  A    between atoms: _20  and  _23
REMARK   10  A    between atoms: _23  and  _24
REMARK   11  A    between atoms: _27  and  _29
REMARK   12  A    between atoms: _29  and  _30
REMARK   13  A    between atoms: _29  and  _32
REMARK   14  A    between atoms: _32  and  _33
REMARK   15  A    between atoms: _36  and  _38
REMARK   16  A    between atoms: _38  and  _39
REMARK   17  A    between atoms: _38  and  _41
REMARK   18  A    between atoms: _41  and  _42
REMARK   19  A    between atoms: _45  and  _47
REMARK   20  A    between atoms: _47  and  _48
REMARK   21  A    between atoms: _47  and  _50
REMARK   22  A    between atoms: _50  and  _51
REMARK   23  A    between atoms: _54  and  _56
REMARK   24  A    between atoms: _56  and  _57
REMARK   25  A    between atoms: _59  and  _61
REMARK   26  A    between atoms: _61  and  _62
REMARK   27  A    between atoms: _65  and  _67
REMARK   28  A    between atoms: _67  and  _68
REMARK   29  A    between atoms: _67  and  _70
REMARK   30  A    between atoms: _70  and  _71
REMARK   31  A    between atoms: _74  and  _76
REMARK   32  A    between atoms: _76  and  _77
REMARK   33  A    between atoms: _76  and  _79
REMARK   34  A    between atoms: _79  and  _80
REMARK   35  A    between atoms: _83  and  _85
REMARK   36  A    between atoms: _85  and  _86
REMARK   37  A    between atoms: _85  and  _88
REMARK   38  A    between atoms: _88  and  _89
REMARK   39  A    between atoms: _92  and  _94
REMARK   40  A    between atoms: _94  and  _95
REMARK   41  A    between atoms: _94  and  _97
REMARK   42  A    between atoms: _100  and  _102
REMARK   43  A    between atoms: _102  and  _103
REMARK   44  A    between atoms: _102  and  _105
REMARK   45  A    between atoms: _105  and  _106
REMARK   46  A    between atoms: _106  and  _107
REMARK   47  A    between atoms: _107  and  _108
REMARK   48  A    between atoms: _108  and  _109
REMARK   49  A    between atoms: _113  and  _115
REMARK   50  A    between atoms: _115  and  _116
REMARK   51  A    between atoms: _115  and  _118
REMARK   52  A    between atoms: _118  and  _119
REMARK   53  A    between atoms: _119  and  _120
REMARK   54  A    between atoms: _122  and  _124
REMARK   55  A    between atoms: _124  and  _125
REMARK   56  A    between atoms: _124  and  _127
REMARK   57  A    between atoms: _127  and  _128
REMARK   58  A    between atoms: _131  and  _133
REMARK   59  A    between atoms: _133  and  _134
REMARK   60  A    between atoms: _136  and  _138
REMARK   61  A    between atoms: _138  and  _139
REMARK   62  A    between atoms: _141  and  _143
REMARK   63  A    between atoms: _143  and  _144
REMARK   64  A    between atoms: _143  and  _146
REMARK   65  A    between atoms: _146  and  _147
REMARK   66  A    between atoms: _150  and  _152
REMARK   67  A    between atoms: _152  and  _153
REMARK   68  A    between atoms: _155  and  _157
REMARK   69  A    between atoms: _157  and  _158
REMARK   70  A    between atoms: _160  and  _162
REMARK   71  A    between atoms: _162  and  _163
REMARK   72  A    between atoms: _162  and  _165
REMARK   73  A    between atoms: _165  and  _166
REMARK   74  A    between atoms: _172  and  _174
REMARK   75  A    between atoms: _174  and  _175
REMARK   76  A    between atoms: _174  and  _177
REMARK   77  A    between atoms: _177  and  _178
REMARK   78  A    between atoms: _181  and  _183
REMARK   79  A    between atoms: _183  and  _184
REMARK   80  A    between atoms: _183  and  _186
REMARK   81  A    between atoms: _186  and  _187
REMARK   82  A    between atoms: _190  and  _192
REMARK   83  A    between atoms: _192  and  _193
REMARK   84  A    between atoms: _192  and  _195
REMARK   85  A    between atoms: _195  and  _196
REMARK   86  A    between atoms: _200  and  _201
REMARK   87  A    between atoms: _206  and  _208
REMARK   88  A    between atoms: _208  and  _209
REMARK   89  A    between atoms: _208  and  _211
REMARK   90  A    between atoms: _211  and  _212
REMARK   91  A    between atoms: _215  and  _217
REMARK   92  A    between atoms: _217  and  _218
REMARK   93  A    between atoms: _217  and  _220
REMARK   94  A    between atoms: _220  and  _221
REMARK   95  A    between atoms: _226  and  _228
REMARK   96  A    between atoms: _228  and  _229
REMARK   97  A    between atoms: _228  and  _231
REMARK   98  A    between atoms: _234  and  _236
REMARK   99  A    between atoms: _236  and  _237
REMARK  100  A    between atoms: _236  and  _239
REMARK  101  A    between atoms: _239  and  _240
REMARK  102  A    between atoms: _243  and  _245
REMARK  103  A    between atoms: _245  and  _246
REMARK  104  A    between atoms: _248  and  _250
REMARK  105  A    between atoms: _250  and  _251
REMARK  106  A    between atoms: _250  and  _253
REMARK  107  A    between atoms: _253  and  _254
REMARK  108  A    between atoms: _254  and  _255
REMARK  109  A    between atoms: _255  and  _256
REMARK  110  A    between atoms: _265  and  _267
REMARK  111  A    between atoms: _267  and  _268
REMARK  112  A    between atoms: _267  and  _270
REMARK  113  A    between atoms: _270  and  _271
REMARK  114  A    between atoms: _276  and  _278
REMARK  115  A    between atoms: _278  and  _279
REMARK  116  A    between atoms: _278  and  _281
REMARK  117  A    between atoms: _281  and  _282
REMARK  118  A    between atoms: _282  and  _283
REMARK  119  A    between atoms: _283  and  _284
REMARK  120  A    between atoms: _293  and  _295
REMARK  121  A    between atoms: _295  and  _296
REMARK  122  A    between atoms: _295  and  _298
REMARK  123  A    between atoms: _298  and  _299
REMARK  124  A    between atoms: _302  and  _304
REMARK  125  A    between atoms: _304  and  _305
REMARK  126  A    between atoms: _304  and  _307
REMARK  127  A    between atoms: _307  and  _308
REMARK  128  A    between atoms: _311  and  _313
REMARK  129  A    between atoms: _313  and  _314
REMARK  130  A    between atoms: _313  and  _316
REMARK  131  A    between atoms: _316  and  _317
REMARK  132  A    between atoms: _320  and  _322
REMARK  133  A    between atoms: _322  and  _323
REMARK  134  A    between atoms: _322  and  _325
REMARK  135  A    between atoms: _325  and  _326
REMARK  136  A    between atoms: _329  and  _331
REMARK  137  A    between atoms: _331  and  _332
REMARK  138  A    between atoms: _331  and  _334
REMARK  139  A    between atoms: _334  and  _335
REMARK  140  A    between atoms: _338  and  _340
REMARK  141  A    between atoms: _340  and  _341
REMARK  142  A    between atoms: _343  and  _345
REMARK  143  A    between atoms: _345  and  _346
REMARK  144  A    between atoms: _349  and  _351
REMARK  145  A    between atoms: _351  and  _352
REMARK  146  A    between atoms: _351  and  _354
REMARK  147  A    between atoms: _354  and  _355
REMARK  148  A    between atoms: _358  and  _360
REMARK  149  A    between atoms: _360  and  _361
REMARK  150  A    between atoms: _360  and  _363
REMARK  151  A    between atoms: _363  and  _364
REMARK  152  A    between atoms: _367  and  _369
REMARK  153  A    between atoms: _369  and  _370
REMARK  154  A    between atoms: _369  and  _372
REMARK  155  A    between atoms: _372  and  _373
REMARK  156  A    between atoms: _376  and  _378
REMARK  157  A    between atoms: _378  and  _379
REMARK  158  A    between atoms: _378  and  _381
REMARK  159  A    between atoms: _384  and  _386
REMARK  160  A    between atoms: _386  and  _387
REMARK  161  A    between atoms: _386  and  _389
REMARK  162  A    between atoms: _389  and  _390
REMARK  163  A    between atoms: _390  and  _391
REMARK  164  A    between atoms: _394  and  _396
REMARK  165  A    between atoms: _396  and  _397
REMARK  166  A    between atoms: _396  and  _399
REMARK  167  A    between atoms: _399  and  _400
REMARK  168  A    between atoms: _400  and  _401
REMARK  169  A    between atoms: _401  and  _402
REMARK  170  A    between atoms: _402  and  _403
REMARK  171  A    between atoms: _407  and  _409
REMARK  172  A    between atoms: _409  and  _410
REMARK  173  A    between atoms: _409  and  _412
REMARK  174  A    between atoms: _412  and  _413
REMARK  175  A    between atoms: _413  and  _414
REMARK  176  A    between atoms: _416  and  _418
REMARK  177  A    between atoms: _418  and  _419
REMARK  178  A    between atoms: _418  and  _421
REMARK  179  A    between atoms: _421  and  _422
REMARK  180  A    between atoms: _425  and  _427
REMARK  181  A    between atoms: _427  and  _428
REMARK  182  A    between atoms: _430  and  _432
REMARK  183  A    between atoms: _432  and  _433
REMARK  184  A    between atoms: _435  and  _437
REMARK  185  A    between atoms: _437  and  _438
REMARK  186  A    between atoms: _437  and  _440
REMARK  187  A    between atoms: _440  and  _441
REMARK  188  A    between atoms: _444  and  _446
REMARK  189  A    between atoms: _446  and  _447
REMARK  190  A    between atoms: _449  and  _451
REMARK  191  A    between atoms: _451  and  _452
REMARK  192  A    between atoms: _454  and  _456
REMARK  193  A    between atoms: _456  and  _457
REMARK  194  A    between atoms: _456  and  _459
REMARK  195  A    between atoms: _459  and  _460
REMARK  196  A    between atoms: _466  and  _468
REMARK  197  A    between atoms: _468  and  _469
REMARK  198  A    between atoms: _468  and  _471
REMARK  199  A    between atoms: _471  and  _472
REMARK  200  A    between atoms: _475  and  _477
REMARK  201  A    between atoms: _477  and  _478
REMARK  202  A    between atoms: _477  and  _480
REMARK  203  A    between atoms: _483  and  _485
REMARK  204  A    between atoms: _485  and  _486
REMARK  205  A    between atoms: _485  and  _488
REMARK  206  A    between atoms: _488  and  _489
REMARK  207  A    between atoms: _492  and  _494
REMARK  208  A    between atoms: _494  and  _495
REMARK  209  A    between atoms: _494  and  _497
REMARK  210  A    between atoms: _495  and  _496
REMARK  211  A    between atoms: _495  and  _501
REMARK  212  A    between atoms: _497  and  _498
REMARK  213  A    between atoms: _502  and  _503
REMARK  214  A    between atoms: _508  and  _510
REMARK  215  A    between atoms: _510  and  _511
REMARK  216  A    between atoms: _510  and  _513
REMARK  217  A    between atoms: _513  and  _514
REMARK  218  A    between atoms: _517  and  _519
REMARK  219  A    between atoms: _519  and  _520
REMARK  220  A    between atoms: _519  and  _522
REMARK  221  A    between atoms: _522  and  _523
REMARK  222  A    between atoms: _528  and  _530
REMARK  223  A    between atoms: _530  and  _531
REMARK  224  A    between atoms: _530  and  _533
REMARK  225  A    between atoms: _536  and  _538
REMARK  226  A    between atoms: _538  and  _539
REMARK  227  A    between atoms: _538  and  _541
REMARK  228  A    between atoms: _541  and  _542
REMARK  229  A    between atoms: _545  and  _547
REMARK  230  A    between atoms: _547  and  _548
REMARK  231  A    between atoms: _550  and  _552
REMARK  232  A    between atoms: _552  and  _553
REMARK  233  A    between atoms: _552  and  _555
REMARK  234  A    between atoms: _555  and  _556
REMARK  235  A    between atoms: _556  and  _557
REMARK  236  A    between atoms: _557  and  _558
REMARK                            x       y       z     vdW  Elec       q    Type
REMARK                         _______ _______ _______ _____ _____    ______ ____
ROOT
ATOM      1  O   HOH     1      21.910  24.099   4.877  0.00  0.00    +0.000 OA
ENDROOT
TORSDOF 0
REMARK  Name = ../refined-set-2016/4cp7/4cp7_pocket.pdb
REMARK  236 active torsions:
REMARK  status: ('A' for Active; 'I' for Inactive)
REMARK    1  A    between atoms: _1  and  _3
REMARK    2  A    between atoms: _3  and  _4
REMARK    3  A    between atoms: _3  and  _6
REMARK    4  A    between atoms: _6  and  _7
REMARK    5  A    between atoms: _7  and  _8
REMARK    6  A    between atoms: _8  and  _9
REMARK    7  A    between atoms: _18  and  _20
REMARK    8  A    between atoms: _20  and  _21
REMARK    9  A    between atoms: _20  and  _23
REMARK   10  A    between atoms: _23  and  _24
REMARK   11  A    between atoms: _27  and  _29
REMARK   12  A    between atoms: _29  and  _30
REMARK   13  A    between atoms: _29  and  _32
REMARK   14  A    between atoms: _32  and  _33
REMARK   15  A    between atoms: _36  and  _38
REMARK   16  A    between atoms: _38  and  _39
REMARK   17  A    between atoms: _38  and  _41
REMARK   18  A    between atoms: _41  and  _42
REMARK   19  A    between atoms: _45  and  _47
REMARK   20  A    between atoms: _47  and  _48
REMARK   21  A    between atoms: _47  and  _50
REMARK   22  A    between atoms: _50  and  _51
REMARK   23  A    between atoms: _54  and  _56
REMARK   24  A    between atoms: _56  and  _57
REMARK   25  A    between atoms: _59  and  _61
REMARK   26  A    between atoms: _61  and  _62
REMARK   27  A    between atoms: _65  and  _67
REMARK   28  A    between atoms: _67  and  _68
REMARK   29  A    between atoms: _67  and  _70
REMARK   30  A    between atoms: _70  and  _71
REMARK   31  A    between atoms: _74  and  _76
REMARK   32  A    between atoms: _76  and  _77
REMARK   33  A    between atoms: _76  and  _79
REMARK   34  A    between atoms: _79  and  _80
REMARK   35  A    between atoms: _83  and  _85
REMARK   36  A    between atoms: _85  and  _86
REMARK   37  A    between atoms: _85  and  _88
REMARK   38  A    between atoms: _88  and  _89
REMARK   39  A    between atoms: _92  and  _94
REMARK   40  A    between atoms: _94  and  _95
REMARK   41  A    between atoms: _94  and  _97
REMARK   42  A    between atoms: _100  and  _102
REMARK   43  A    between atoms: _102  and  _103
REMARK   44  A    between atoms: _102  and  _105
REMARK   45  A    between atoms: _105  and  _106
REMARK   46  A    between atoms: _106  and  _107
REMARK   47  A    between atoms: _107  and  _108
REMARK   48  A    between atoms: _108  and  _109
REMARK   49  A    between atoms: _113  and  _115
REMARK   50  A    between atoms: _115  and  _116
REMARK   51  A    between atoms: _115  and  _118
REMARK   52  A    between atoms: _118  and  _119
REMARK   53  A    between atoms: _119  and  _120
REMARK   54  A    between atoms: _122  and  _124
REMARK   55  A    between atoms: _124  and  _125
REMARK   56  A    between atoms: _124  and  _127
REMARK   57  A    between atoms: _127  and  _128
REMARK   58  A    between atoms: _131  and  _133
REMARK   59  A    between atoms: _133  and  _134
REMARK   60  A    between atoms: _136  and  _138
REMARK   61  A    between atoms: _138  and  _139
REMARK   62  A    between atoms: _141  and  _143
REMARK   63  A    between atoms: _143  and  _144
REMARK   64  A    between atoms: _143  and  _146
REMARK   65  A    between atoms: _146  and  _147
REMARK   66  A    between atoms: _150  and  _152
REMARK   67  A    between atoms: _152  and  _153
REMARK   68  A    between atoms: _155  and  _157
REMARK   69  A    between atoms: _157  and  _158
REMARK   70  A    between atoms: _160  and  _162
REMARK   71  A    between atoms: _162  and  _163
REMARK   72  A    between atoms: _162  and  _165
REMARK   73  A    between atoms: _165  and  _166
REMARK   74  A    between atoms: _172  and  _174
REMARK   75  A    between atoms: _174  and  _175
REMARK   76  A    between atoms: _174  and  _177
REMARK   77  A    between atoms: _177  and  _178
REMARK   78  A    between atoms: _181  and  _183
REMARK   79  A    between atoms: _183  and  _184
REMARK   80  A    between atoms: _183  and  _186
REMARK   81  A    between atoms: _186  and  _187
REMARK   82  A    between atoms: _190  and  _192
REMARK   83  A    between atoms: _192  and  _193
REMARK   84  A    between atoms: _192  and  _195
REMARK   85  A    between atoms: _195  and  _196
REMARK   86  A    between atoms: _200  and  _201
REMARK   87  A    between atoms: _206  and  _208
REMARK   88  A    between atoms: _208  and  _209
REMARK   89  A    between atoms: _208  and  _211
REMARK   90  A    between atoms: _211  and  _212
REMARK   91  A    between atoms: _215  and  _217
REMARK   92  A    between atoms: _217  and  _218
REMARK   93  A    between atoms: _217  and  _220
REMARK   94  A    between atoms: _220  and  _221
REMARK   95  A    between atoms: _226  and  _228
REMARK   96  A    between atoms: _228  and  _229
REMARK   97  A    between atoms: _228  and  _231
REMARK   98  A    between atoms: _234  and  _236
REMARK   99  A    between atoms: _236  and  _237
REMARK  100  A    between atoms: _236  and  _239
REMARK  101  A    between atoms: _239  and  _240
REMARK  102  A    between atoms: _243  and  _245
REMARK  103  A    between atoms: _245  and  _246
REMARK  104  A    between atoms: _248  and  _250
REMARK  105  A    between atoms: _250  and  _251
REMARK  106  A    between atoms: _250  and  _253
REMARK  107  A    between atoms: _253  and  _254
REMARK  108  A    between atoms: _254  and  _255
REMARK  109  A    between atoms: _255  and  _256
REMARK  110  A    between atoms: _265  and  _267
REMARK  111  A    between atoms: _267  and  _268
REMARK  112  A    between atoms: _267  and  _270
REMARK  113  A    between atoms: _270  and  _271
REMARK  114  A    between atoms: _276  and  _278
REMARK  115  A    between atoms: _278  and  _279
REMARK  116  A    between atoms: _278  and  _281
REMARK  117  A    between atoms: _281  and  _282
REMARK  118  A    between atoms: _282  and  _283
REMARK  119  A    between atoms: _283  and  _284
REMARK  120  A    between atoms: _293  and  _295
REMARK  121  A    between atoms: _295  and  _296
REMARK  122  A    between atoms: _295  and  _298
REMARK  123  A    between atoms: _298  and  _299
REMARK  124  A    between atoms: _302  and  _304
REMARK  125  A    between atoms: _304  and  _305
REMARK  126  A    between atoms: _304  and  _307
REMARK  127  A    between atoms: _307  and  _308
REMARK  128  A    between atoms: _311  and  _313
REMARK  129  A    between atoms: _313  and  _314
REMARK  130  A    between atoms: _313  and  _316
REMARK  131  A    between atoms: _316  and  _317
REMARK  132  A    between atoms: _320  and  _322
REMARK  133  A    between atoms: _322  and  _323
REMARK  134  A    between atoms: _322  and  _325
REMARK  135  A    between atoms: _325  and  _326
REMARK  136  A    between atoms: _329  and  _331
REMARK  137  A    between atoms: _331  and  _332
REMARK  138  A    between atoms: _331  and  _334
REMARK  139  A    between atoms: _334  and  _335
REMARK  140  A    between atoms: _338  and  _340
REMARK  141  A    between atoms: _340  and  _341
REMARK  142  A    between atoms: _343  and  _345
REMARK  143  A    between atoms: _345  and  _346
REMARK  144  A    between atoms: _349  and  _351
REMARK  145  A    between atoms: _351  and  _352
REMARK  146  A    between atoms: _351  and  _354
REMARK  147  A    between atoms: _354  and  _355
REMARK  148  A    between atoms: _358  and  _360
REMARK  149  A    between atoms: _360  and  _361
REMARK  150  A    between atoms: _360  and  _363
REMARK  151  A    between atoms: _363  and  _364
REMARK  152  A    between atoms: _367  and  _369
REMARK  153  A    between atoms: _369  and  _370
REMARK  154  A    between atoms: _369  and  _372
REMARK  155  A    between atoms: _372  and  _373
REMARK  156  A    between atoms: _376  and  _378
REMARK  157  A    between atoms: _378  and  _379
REMARK  158  A    between atoms: _378  and  _381
REMARK  159  A    between atoms: _384  and  _386
REMARK  160  A    between atoms: _386  and  _387
REMARK  161  A    between atoms: _386  and  _389
REMARK  162  A    between atoms: _389  and  _390
REMARK  163  A    between atoms: _390  and  _391
REMARK  164  A    between atoms: _394  and  _396
REMARK  165  A    between atoms: _396  and  _397
REMARK  166  A    between atoms: _396  and  _399
REMARK  167  A    between atoms: _399  and  _400
REMARK  168  A    between atoms: _400  and  _401
REMARK  169  A    between atoms: _401  and  _402
REMARK  170  A    between atoms: _402  and  _403
REMARK  171  A    between atoms: _407  and  _409
REMARK  172  A    between atoms: _409  and  _410
REMARK  173  A    between atoms: _409  and  _412
REMARK  174  A    between atoms: _412  and  _413
REMARK  175  A    between atoms: _413  and  _414
REMARK  176  A    between atoms: _416  and  _418
REMARK  177  A    between atoms: _418  and  _419
REMARK  178  A    between atoms: _418  and  _421
REMARK  179  A    between atoms: _421  and  _422
REMARK  180  A    between atoms: _425  and  _427
REMARK  181  A    between atoms: _427  and  _428
REMARK  182  A    between atoms: _430  and  _432
REMARK  183  A    between atoms: _432  and  _433
REMARK  184  A    between atoms: _435  and  _437
REMARK  185  A    between atoms: _437  and  _438
REMARK  186  A    between atoms: _437  and  _440
REMARK  187  A    between atoms: _440  and  _441
REMARK  188  A    between atoms: _444  and  _446
REMARK  189  A    between atoms: _446  and  _447
REMARK  190  A    between atoms: _449  and  _451
REMARK  191  A    between atoms: _451  and  _452
REMARK  192  A    between atoms: _454  and  _456
REMARK  193  A    between atoms: _456  and  _457
REMARK  194  A    between atoms: _456  and  _459
REMARK  195  A    between atoms: _459  and  _460
REMARK  196  A    between atoms: _466  and  _468
REMARK  197  A    between atoms: _468  and  _469
REMARK  198  A    between atoms: _468  and  _471
REMARK  199  A    between atoms: _471  and  _472
REMARK  200  A    between atoms: _475  and  _477
REMARK  201  A    between atoms: _477  and  _478
REMARK  202  A    between atoms: _477  and  _480
REMARK  203  A    between atoms: _483  and  _485
REMARK  204  A    between atoms: _485  and  _486
REMARK  205  A    between atoms: _485  and  _488
REMARK  206  A    between atoms: _488  and  _489
REMARK  207  A    between atoms: _492  and  _494
REMARK  208  A    between atoms: _494  and  _495
REMARK  209  A    between atoms: _494  and  _497
REMARK  210  A    between atoms: _495  and  _496
REMARK  211  A    between atoms: _495  and  _501
REMARK  212  A    between atoms: _497  and  _498
REMARK  213  A    between atoms: _502  and  _503
REMARK  214  A    between atoms: _508  and  _510
REMARK  215  A    between atoms: _510  and  _511
REMARK  216  A    between atoms: _510  and  _513
REMARK  217  A    between atoms: _513  and  _514
REMARK  218  A    between atoms: _517  and  _519
REMARK  219  A    between atoms: _519  and  _520
REMARK  220  A    between atoms: _519  and  _522
REMARK  221  A    between atoms: _522  and  _523
REMARK  222  A    between atoms: _528  and  _530
REMARK  223  A    between atoms: _530  and  _531
REMARK  224  A    between atoms: _530  and  _533
REMARK  225  A    between atoms: _536  and  _538
REMARK  226  A    between atoms: _538  and  _539
REMARK  227  A    between atoms: _538  and  _541
REMARK  228  A    between atoms: _541  and  _542
REMARK  229  A    between atoms: _545  and  _547
REMARK  230  A    between atoms: _547  and  _548
REMARK  231  A    between atoms: _550  and  _552
REMARK  232  A    between atoms: _552  and  _553
REMARK  233  A    between atoms: _552  and  _555
REMARK  234  A    between atoms: _555  and  _556
REMARK  235  A    between atoms: _556  and  _557
REMARK  236  A    between atoms: _557  and  _558
REMARK                            x       y       z     vdW  Elec       q    Type
REMARK                         _______ _______ _______ _____ _____    ______ ____
ROOT
ATOM      1  O   HOH     1      24.958  19.228   0.419  0.00  0.00    +0.000 OA
ENDROOT
TORSDOF 0
REMARK  Name = ../refined-set-2016/4cp7/4cp7_pocket.pdb
REMARK  236 active torsions:
REMARK  status: ('A' for Active; 'I' for Inactive)
REMARK    1  A    between atoms: _1  and  _3
REMARK    2  A    between atoms: _3  and  _4
REMARK    3  A    between atoms: _3  and  _6
REMARK    4  A    between atoms: _6  and  _7
REMARK    5  A    between atoms: _7  and  _8
REMARK    6  A    between atoms: _8  and  _9
REMARK    7  A    between atoms: _18  and  _20
REMARK    8  A    between atoms: _20  and  _21
REMARK    9  A    between atoms: _20  and  _23
REMARK   10  A    between atoms: _23  and  _24
REMARK   11  A    between atoms: _27  and  _29
REMARK   12  A    between atoms: _29  and  _30
REMARK   13  A    between atoms: _29  and  _32
REMARK   14  A    between atoms: _32  and  _33
REMARK   15  A    between atoms: _36  and  _38
REMARK   16  A    between atoms: _38  and  _39
REMARK   17  A    between atoms: _38  and  _41
REMARK   18  A    between atoms: _41  and  _42
REMARK   19  A    between atoms: _45  and  _47
REMARK   20  A    between atoms: _47  and  _48
REMARK   21  A    between atoms: _47  and  _50
REMARK   22  A    between atoms: _50  and  _51
REMARK   23  A    between atoms: _54  and  _56
REMARK   24  A    between atoms: _56  and  _57
REMARK   25  A    between atoms: _59  and  _61
REMARK   26  A    between atoms: _61  and  _62
REMARK   27  A    between atoms: _65  and  _67
REMARK   28  A    between atoms: _67  and  _68
REMARK   29  A    between atoms: _67  and  _70
REMARK   30  A    between atoms: _70  and  _71
REMARK   31  A    between atoms: _74  and  _76
REMARK   32  A    between atoms: _76  and  _77
REMARK   33  A    between atoms: _76  and  _79
REMARK   34  A    between atoms: _79  and  _80
REMARK   35  A    between atoms: _83  and  _85
REMARK   36  A    between atoms: _85  and  _86
REMARK   37  A    between atoms: _85  and  _88
REMARK   38  A    between atoms: _88  and  _89
REMARK   39  A    between atoms: _92  and  _94
REMARK   40  A    between atoms: _94  and  _95
REMARK   41  A    between atoms: _94  and  _97
REMARK   42  A    between atoms: _100  and  _102
REMARK   43  A    between atoms: _102  and  _103
REMARK   44  A    between atoms: _102  and  _105
REMARK   45  A    between atoms: _105  and  _106
REMARK   46  A    between atoms: _106  and  _107
REMARK   47  A    between atoms: _107  and  _108
REMARK   48  A    between atoms: _108  and  _109
REMARK   49  A    between atoms: _113  and  _115
REMARK   50  A    between atoms: _115  and  _116
REMARK   51  A    between atoms: _115  and  _118
REMARK   52  A    between atoms: _118  and  _119
REMARK   53  A    between atoms: _119  and  _120
REMARK   54  A    between atoms: _122  and  _124
REMARK   55  A    between atoms: _124  and  _125
REMARK   56  A    between atoms: _124  and  _127
REMARK   57  A    between atoms: _127  and  _128
REMARK   58  A    between atoms: _131  and  _133
REMARK   59  A    between atoms: _133  and  _134
REMARK   60  A    between atoms: _136  and  _138
REMARK   61  A    between atoms: _138  and  _139
REMARK   62  A    between atoms: _141  and  _143
REMARK   63  A    between atoms: _143  and  _144
REMARK   64  A    between atoms: _143  and  _146
REMARK   65  A    between atoms: _146  and  _147
REMARK   66  A    between atoms: _150  and  _152
REMARK   67  A    between atoms: _152  and  _153
REMARK   68  A    between atoms: _155  and  _157
REMARK   69  A    between atoms: _157  and  _158
REMARK   70  A    between atoms: _160  and  _162
REMARK   71  A    between atoms: _162  and  _163
REMARK   72  A    between atoms: _162  and  _165
REMARK   73  A    between atoms: _165  and  _166
REMARK   74  A    between atoms: _172  and  _174
REMARK   75  A    between atoms: _174  and  _175
REMARK   76  A    between atoms: _174  and  _177
REMARK   77  A    between atoms: _177  and  _178
REMARK   78  A    between atoms: _181  and  _183
REMARK   79  A    between atoms: _183  and  _184
REMARK   80  A    between atoms: _183  and  _186
REMARK   81  A    between atoms: _186  and  _187
REMARK   82  A    between atoms: _190  and  _192
REMARK   83  A    between atoms: _192  and  _193
REMARK   84  A    between atoms: _192  and  _195
REMARK   85  A    between atoms: _195  and  _196
REMARK   86  A    between atoms: _200  and  _201
REMARK   87  A    between atoms: _206  and  _208
REMARK   88  A    between atoms: _208  and  _209
REMARK   89  A    between atoms: _208  and  _211
REMARK   90  A    between atoms: _211  and  _212
REMARK   91  A    between atoms: _215  and  _217
REMARK   92  A    between atoms: _217  and  _218
REMARK   93  A    between atoms: _217  and  _220
REMARK   94  A    between atoms: _220  and  _221
REMARK   95  A    between atoms: _226  and  _228
REMARK   96  A    between atoms: _228  and  _229
REMARK   97  A    between atoms: _228  and  _231
REMARK   98  A    between atoms: _234  and  _236
REMARK   99  A    between atoms: _236  and  _237
REMARK  100  A    between atoms: _236  and  _239
REMARK  101  A    between atoms: _239  and  _240
REMARK  102  A    between atoms: _243  and  _245
REMARK  103  A    between atoms: _245  and  _246
REMARK  104  A    between atoms: _248  and  _250
REMARK  105  A    between atoms: _250  and  _251
REMARK  106  A    between atoms: _250  and  _253
REMARK  107  A    between atoms: _253  and  _254
REMARK  108  A    between atoms: _254  and  _255
REMARK  109  A    between atoms: _255  and  _256
REMARK  110  A    between atoms: _265  and  _267
REMARK  111  A    between atoms: _267  and  _268
REMARK  112  A    between atoms: _267  and  _270
REMARK  113  A    between atoms: _270  and  _271
REMARK  114  A    between atoms: _276  and  _278
REMARK  115  A    between atoms: _278  and  _279
REMARK  116  A    between atoms: _278  and  _281
REMARK  117  A    between atoms: _281  and  _282
REMARK  118  A    between atoms: _282  and  _283
REMARK  119  A    between atoms: _283  and  _284
REMARK  120  A    between atoms: _293  and  _295
REMARK  121  A    between atoms: _295  and  _296
REMARK  122  A    between atoms: _295  and  _298
REMARK  123  A    between atoms: _298  and  _299
REMARK  124  A    between atoms: _302  and  _304
REMARK  125  A    between atoms: _304  and  _305
REMARK  126  A    between atoms: _304  and  _307
REMARK  127  A    between atoms: _307  and  _308
REMARK  128  A    between atoms: _311  and  _313
REMARK  129  A    between atoms: _313  and  _314
REMARK  130  A    between atoms: _313  and  _316
REMARK  131  A    between atoms: _316  and  _317
REMARK  132  A    between atoms: _320  and  _322
REMARK  133  A    between atoms: _322  and  _323
REMARK  134  A    between atoms: _322  and  _325
REMARK  135  A    between atoms: _325  and  _326
REMARK  136  A    between atoms: _329  and  _331
REMARK  137  A    between atoms: _331  and  _332
REMARK  138  A    between atoms: _331  and  _334
REMARK  139  A    between atoms: _334  and  _335
REMARK  140  A    between atoms: _338  and  _340
REMARK  141  A    between atoms: _340  and  _341
REMARK  142  A    between atoms: _343  and  _345
REMARK  143  A    between atoms: _345  and  _346
REMARK  144  A    between atoms: _349  and  _351
REMARK  145  A    between atoms: _351  and  _352
REMARK  146  A    between atoms: _351  and  _354
REMARK  147  A    between atoms: _354  and  _355
REMARK  148  A    between atoms: _358  and  _360
REMARK  149  A    between atoms: _360  and  _361
REMARK  150  A    between atoms: _360  and  _363
REMARK  151  A    between atoms: _363  and  _364
REMARK  152  A    between atoms: _367  and  _369
REMARK  153  A    between atoms: _369  and  _370
REMARK  154  A    between atoms: _369  and  _372
REMARK  155  A    between atoms: _372  and  _373
REMARK  156  A    between atoms: _376  and  _378
REMARK  157  A    between atoms: _378  and  _379
REMARK  158  A    between atoms: _378  and  _381
REMARK  159  A    between atoms: _384  and  _386
REMARK  160  A    between atoms: _386  and  _387
REMARK  161  A    between atoms: _386  and  _389
REMARK  162  A    between atoms: _389  and  _390
REMARK  163  A    between atoms: _390  and  _391
REMARK  164  A    between atoms: _394  and  _396
REMARK  165  A    between atoms: _396  and  _397
REMARK  166  A    between atoms: _396  and  _399
REMARK  167  A    between atoms: _399  and  _400
REMARK  168  A    between atoms: _400  and  _401
REMARK  169  A    between atoms: _401  and  _402
REMARK  170  A    between atoms: _402  and  _403
REMARK  171  A    between atoms: _407  and  _409
REMARK  172  A    between atoms: _409  and  _410
REMARK  173  A    between atoms: _409  and  _412
REMARK  174  A    between atoms: _412  and  _413
REMARK  175  A    between atoms: _413  and  _414
REMARK  176  A    between atoms: _416  and  _418
REMARK  177  A    between atoms: _418  and  _419
REMARK  178  A    between atoms: _418  and  _421
REMARK  179  A    between atoms: _421  and  _422
REMARK  180  A    between atoms: _425  and  _427
REMARK  181  A    between atoms: _427  and  _428
REMARK  182  A    between atoms: _430  and  _432
REMARK  183  A    between atoms: _432  and  _433
REMARK  184  A    between atoms: _435  and  _437
REMARK  185  A    between atoms: _437  and  _438
REMARK  186  A    between atoms: _437  and  _440
REMARK  187  A    between atoms: _440  and  _441
REMARK  188  A    between atoms: _444  and  _446
REMARK  189  A    between atoms: _446  and  _447
REMARK  190  A    between atoms: _449  and  _451
REMARK  191  A    between atoms: _451  and  _452
REMARK  192  A    between atoms: _454  and  _456
REMARK  193  A    between atoms: _456  and  _457
REMARK  194  A    between atoms: _456  and  _459
REMARK  195  A    between atoms: _459  and  _460
REMARK  196  A    between atoms: _466  and  _468
REMARK  197  A    between atoms: _468  and  _469
REMARK  198  A    between atoms: _468  and  _471
REMARK  199  A    between atoms: _471  and  _472
REMARK  200  A    between atoms: _475  and  _477
REMARK  201  A    between atoms: _477  and  _478
REMARK  202  A    between atoms: _477  and  _480
REMARK  203  A    between atoms: _483  and  _485
REMARK  204  A    between atoms: _485  and  _486
REMARK  205  A    between atoms: _485  and  _488
REMARK  206  A    between atoms: _488  and  _489
REMARK  207  A    between atoms: _492  and  _494
REMARK  208  A    between atoms: _494  and  _495
REMARK  209  A    between atoms: _494  and  _497
REMARK  210  A    between atoms: _495  and  _496
REMARK  211  A    between atoms: _495  and  _501
REMARK  212  A    between atoms: _497  and  _498
REMARK  213  A    between atoms: _502  and  _503
REMARK  214  A    between atoms: _508  and  _510
REMARK  215  A    between atoms: _510  and  _511
REMARK  216  A    between atoms: _510  and  _513
REMARK  217  A    between atoms: _513  and  _514
REMARK  218  A    between atoms: _517  and  _519
REMARK  219  A    between atoms: _519  and  _520
REMARK  220  A    between atoms: _519  and  _522
REMARK  221  A    between atoms: _522  and  _523
REMARK  222  A    between atoms: _528  and  _530
REMARK  223  A    between atoms: _530  and  _531
REMARK  224  A    between atoms: _530  and  _533
REMARK  225  A    between atoms: _536  and  _538
REMARK  226  A    between atoms: _538  and  _539
REMARK  227  A    between atoms: _538  and  _541
REMARK  228  A    between atoms: _541  and  _542
REMARK  229  A    between atoms: _545  and  _547
REMARK  230  A    between atoms: _547  and  _548
REMARK  231  A    between atoms: _550  and  _552
REMARK  232  A    between atoms: _552  and  _553
REMARK  233  A    between atoms: _552  and  _555
REMARK  234  A    between atoms: _555  and  _556
REMARK  235  A    between atoms: _556  and  _557
REMARK  236  A    between atoms: _557  and  _558
REMARK                            x       y       z     vdW  Elec       q    Type
REMARK                         _______ _______ _______ _____ _____    ______ ____
ROOT
ATOM      1  O   HOH     1      22.348  15.670   4.767  0.00  0.00    +0.000 OA
ENDROOT
TORSDOF 0
REMARK  Name = ../refined-set-2016/4cp7/4cp7_pocket.pdb
REMARK  236 active torsions:
REMARK  status: ('A' for Active; 'I' for Inactive)
REMARK    1  A    between atoms: _1  and  _3
REMARK    2  A    between atoms: _3  and  _4
REMARK    3  A    between atoms: _3  and  _6
REMARK    4  A    between atoms: _6  and  _7
REMARK    5  A    between atoms: _7  and  _8
REMARK    6  A    between atoms: _8  and  _9
REMARK    7  A    between atoms: _18  and  _20
REMARK    8  A    between atoms: _20  and  _21
REMARK    9  A    between atoms: _20  and  _23
REMARK   10  A    between atoms: _23  and  _24
REMARK   11  A    between atoms: _27  and  _29
REMARK   12  A    between atoms: _29  and  _30
REMARK   13  A    between atoms: _29  and  _32
REMARK   14  A    between atoms: _32  and  _33
REMARK   15  A    between atoms: _36  and  _38
REMARK   16  A    between atoms: _38  and  _39
REMARK   17  A    between atoms: _38  and  _41
REMARK   18  A    between atoms: _41  and  _42
REMARK   19  A    between atoms: _45  and  _47
REMARK   20  A    between atoms: _47  and  _48
REMARK   21  A    between atoms: _47  and  _50
REMARK   22  A    between atoms: _50  and  _51
REMARK   23  A    between atoms: _54  and  _56
REMARK   24  A    between atoms: _56  and  _57
REMARK   25  A    between atoms: _59  and  _61
REMARK   26  A    between atoms: _61  and  _62
REMARK   27  A    between atoms: _65  and  _67
REMARK   28  A    between atoms: _67  and  _68
REMARK   29  A    between atoms: _67  and  _70
REMARK   30  A    between atoms: _70  and  _71
REMARK   31  A    between atoms: _74  and  _76
REMARK   32  A    between atoms: _76  and  _77
REMARK   33  A    between atoms: _76  and  _79
REMARK   34  A    between atoms: _79  and  _80
REMARK   35  A    between atoms: _83  and  _85
REMARK   36  A    between atoms: _85  and  _86
REMARK   37  A    between atoms: _85  and  _88
REMARK   38  A    between atoms: _88  and  _89
REMARK   39  A    between atoms: _92  and  _94
REMARK   40  A    between atoms: _94  and  _95
REMARK   41  A    between atoms: _94  and  _97
REMARK   42  A    between atoms: _100  and  _102
REMARK   43  A    between atoms: _102  and  _103
REMARK   44  A    between atoms: _102  and  _105
REMARK   45  A    between atoms: _105  and  _106
REMARK   46  A    between atoms: _106  and  _107
REMARK   47  A    between atoms: _107  and  _108
REMARK   48  A    between atoms: _108  and  _109
REMARK   49  A    between atoms: _113  and  _115
REMARK   50  A    between atoms: _115  and  _116
REMARK   51  A    between atoms: _115  and  _118
REMARK   52  A    between atoms: _118  and  _119
REMARK   53  A    between atoms: _119  and  _120
REMARK   54  A    between atoms: _122  and  _124
REMARK   55  A    between atoms: _124  and  _125
REMARK   56  A    between atoms: _124  and  _127
REMARK   57  A    between atoms: _127  and  _128
REMARK   58  A    between atoms: _131  and  _133
REMARK   59  A    between atoms: _133  and  _134
REMARK   60  A    between atoms: _136  and  _138
REMARK   61  A    between atoms: _138  and  _139
REMARK   62  A    between atoms: _141  and  _143
REMARK   63  A    between atoms: _143  and  _144
REMARK   64  A    between atoms: _143  and  _146
REMARK   65  A    between atoms: _146  and  _147
REMARK   66  A    between atoms: _150  and  _152
REMARK   67  A    between atoms: _152  and  _153
REMARK   68  A    between atoms: _155  and  _157
REMARK   69  A    between atoms: _157  and  _158
REMARK   70  A    between atoms: _160  and  _162
REMARK   71  A    between atoms: _162  and  _163
REMARK   72  A    between atoms: _162  and  _165
REMARK   73  A    between atoms: _165  and  _166
REMARK   74  A    between atoms: _172  and  _174
REMARK   75  A    between atoms: _174  and  _175
REMARK   76  A    between atoms: _174  and  _177
REMARK   77  A    between atoms: _177  and  _178
REMARK   78  A    between atoms: _181  and  _183
REMARK   79  A    between atoms: _183  and  _184
REMARK   80  A    between atoms: _183  and  _186
REMARK   81  A    between atoms: _186  and  _187
REMARK   82  A    between atoms: _190  and  _192
REMARK   83  A    between atoms: _192  and  _193
REMARK   84  A    between atoms: _192  and  _195
REMARK   85  A    between atoms: _195  and  _196
REMARK   86  A    between atoms: _200  and  _201
REMARK   87  A    between atoms: _206  and  _208
REMARK   88  A    between atoms: _208  and  _209
REMARK   89  A    between atoms: _208  and  _211
REMARK   90  A    between atoms: _211  and  _212
REMARK   91  A    between atoms: _215  and  _217
REMARK   92  A    between atoms: _217  and  _218
REMARK   93  A    between atoms: _217  and  _220
REMARK   94  A    between atoms: _220  and  _221
REMARK   95  A    between atoms: _226  and  _228
REMARK   96  A    between atoms: _228  and  _229
REMARK   97  A    between atoms: _228  and  _231
REMARK   98  A    between atoms: _234  and  _236
REMARK   99  A    between atoms: _236  and  _237
REMARK  100  A    between atoms: _236  and  _239
REMARK  101  A    between atoms: _239  and  _240
REMARK  102  A    between atoms: _243  and  _245
REMARK  103  A    between atoms: _245  and  _246
REMARK  104  A    between atoms: _248  and  _250
REMARK  105  A    between atoms: _250  and  _251
REMARK  106  A    between atoms: _250  and  _253
REMARK  107  A    between atoms: _253  and  _254
REMARK  108  A    between atoms: _254  and  _255
REMARK  109  A    between atoms: _255  and  _256
REMARK  110  A    between atoms: _265  and  _267
REMARK  111  A    between atoms: _267  and  _268
REMARK  112  A    between atoms: _267  and  _270
REMARK  113  A    between atoms: _270  and  _271
REMARK  114  A    between atoms: _276  and  _278
REMARK  115  A    between atoms: _278  and  _279
REMARK  116  A    between atoms: _278  and  _281
REMARK  117  A    between atoms: _281  and  _282
REMARK  118  A    between atoms: _282  and  _283
REMARK  119  A    between atoms: _283  and  _284
REMARK  120  A    between atoms: _293  and  _295
REMARK  121  A    between atoms: _295  and  _296
REMARK  122  A    between atoms: _295  and  _298
REMARK  123  A    between atoms: _298  and  _299
REMARK  124  A    between atoms: _302  and  _304
REMARK  125  A    between atoms: _304  and  _305
REMARK  126  A    between atoms: _304  and  _307
REMARK  127  A    between atoms: _307  and  _308
REMARK  128  A    between atoms: _311  and  _313
REMARK  129  A    between atoms: _313  and  _314
REMARK  130  A    between atoms: _313  and  _316
REMARK  131  A    between atoms: _316  and  _317
REMARK  132  A    between atoms: _320  and  _322
REMARK  133  A    between atoms: _322  and  _323
REMARK  134  A    between atoms: _322  and  _325
REMARK  135  A    between atoms: _325  and  _326
REMARK  136  A    between atoms: _329  and  _331
REMARK  137  A    between atoms: _331  and  _332
REMARK  138  A    between atoms: _331  and  _334
REMARK  139  A    between atoms: _334  and  _335
REMARK  140  A    between atoms: _338  and  _340
REMARK  141  A    between atoms: _340  and  _341
REMARK  142  A    between atoms: _343  and  _345
REMARK  143  A    between atoms: _345  and  _346
REMARK  144  A    between atoms: _349  and  _351
REMARK  145  A    between atoms: _351  and  _352
REMARK  146  A    between atoms: _351  and  _354
REMARK  147  A    between atoms: _354  and  _355
REMARK  148  A    between atoms: _358  and  _360
REMARK  149  A    between atoms: _360  and  _361
REMARK  150  A    between atoms: _360  and  _363
REMARK  151  A    between atoms: _363  and  _364
REMARK  152  A    between atoms: _367  and  _369
REMARK  153  A    between atoms: _369  and  _370
REMARK  154  A    between atoms: _369  and  _372
REMARK  155  A    between atoms: _372  and  _373
REMARK  156  A    between atoms: _376  and  _378
REMARK  157  A    between atoms: _378  and  _379
REMARK  158  A    between atoms: _378  and  _381
REMARK  159  A    between atoms: _384  and  _386
REMARK  160  A    between atoms: _386  and  _387
REMARK  161  A    between atoms: _386  and  _389
REMARK  162  A    between atoms: _389  and  _390
REMARK  163  A    between atoms: _390  and  _391
REMARK  164  A    between atoms: _394  and  _396
REMARK  165  A    between atoms: _396  and  _397
REMARK  166  A    between atoms: _396  and  _399
REMARK  167  A    between atoms: _399  and  _400
REMARK  168  A    between atoms: _400  and  _401
REMARK  169  A    between atoms: _401  and  _402
REMARK  170  A    between atoms: _402  and  _403
REMARK  171  A    between atoms: _407  and  _409
REMARK  172  A    between atoms: _409  and  _410
REMARK  173  A    between atoms: _409  and  _412
REMARK  174  A    between atoms: _412  and  _413
REMARK  175  A    between atoms: _413  and  _414
REMARK  176  A    between atoms: _416  and  _418
REMARK  177  A    between atoms: _418  and  _419
REMARK  178  A    between atoms: _418  and  _421
REMARK  179  A    between atoms: _421  and  _422
REMARK  180  A    between atoms: _425  and  _427
REMARK  181  A    between atoms: _427  and  _428
REMARK  182  A    between atoms: _430  and  _432
REMARK  183  A    between atoms: _432  and  _433
REMARK  184  A    between atoms: _435  and  _437
REMARK  185  A    between atoms: _437  and  _438
REMARK  186  A    between atoms: _437  and  _440
REMARK  187  A    between atoms: _440  and  _441
REMARK  188  A    between atoms: _444  and  _446
REMARK  189  A    between atoms: _446  and  _447
REMARK  190  A    between atoms: _449  and  _451
REMARK  191  A    between atoms: _451  and  _452
REMARK  192  A    between atoms: _454  and  _456
REMARK  193  A    between atoms: _456  and  _457
REMARK  194  A    between atoms: _456  and  _459
REMARK  195  A    between atoms: _459  and  _460
REMARK  196  A    between atoms: _466  and  _468
REMARK  197  A    between atoms: _468  and  _469
REMARK  198  A    between atoms: _468  and  _471
REMARK  199  A    between atoms: _471  and  _472
REMARK  200  A    between atoms: _475  and  _477
REMARK  201  A    between atoms: _477  and  _478
REMARK  202  A    between atoms: _477  and  _480
REMARK  203  A    between atoms: _483  and  _485
REMARK  204  A    between atoms: _485  and  _486
REMARK  205  A    between atoms: _485  and  _488
REMARK  206  A    between atoms: _488  and  _489
REMARK  207  A    between atoms: _492  and  _494
REMARK  208  A    between atoms: _494  and  _495
REMARK  209  A    between atoms: _494  and  _497
REMARK  210  A    between atoms: _495  and  _496
REMARK  211  A    between atoms: _495  and  _501
REMARK  212  A    between atoms: _497  and  _498
REMARK  213  A    between atoms: _502  and  _503
REMARK  214  A    between atoms: _508  and  _510
REMARK  215  A    between atoms: _510  and  _511
REMARK  216  A    between atoms: _510  and  _513
REMARK  217  A    between atoms: _513  and  _514
REMARK  218  A    between atoms: _517  and  _519
REMARK  219  A    between atoms: _519  and  _520
REMARK  220  A    between atoms: _519  and  _522
REMARK  221  A    between atoms: _522  and  _523
REMARK  222  A    between atoms: _528  and  _530
REMARK  223  A    between atoms: _530  and  _531
REMARK  224  A    between atoms: _530  and  _533
REMARK  225  A    between atoms: _536  and  _538
REMARK  226  A    between atoms: _538  and  _539
REMARK  227  A    between atoms: _538  and  _541
REMARK  228  A    between atoms: _541  and  _542
REMARK  229  A    between atoms: _545  and  _547
REMARK  230  A    between atoms: _547  and  _548
REMARK  231  A    between atoms: _550  and  _552
REMARK  232  A    between atoms: _552  and  _553
REMARK  233  A    between atoms: _552  and  _555
REMARK  234  A    between atoms: _555  and  _556
REMARK  235  A    between atoms: _556  and  _557
REMARK  236  A    between atoms: _557  and  _558
REMARK                            x       y       z     vdW  Elec       q    Type
REMARK                         _______ _______ _______ _____ _____    ______ ____
ROOT
ATOM      1  O   HOH     1      20.171  16.229  -3.721  0.00  0.00    +0.000 OA
ENDROOT
TORSDOF 0
REMARK  Name = ../refined-set-2016/4cp7/4cp7_pocket.pdb
REMARK  236 active torsions:
REMARK  status: ('A' for Active; 'I' for Inactive)
REMARK    1  A    between atoms: _1  and  _3
REMARK    2  A    between atoms: _3  and  _4
REMARK    3  A    between atoms: _3  and  _6
REMARK    4  A    between atoms: _6  and  _7
REMARK    5  A    between atoms: _7  and  _8
REMARK    6  A    between atoms: _8  and  _9
REMARK    7  A    between atoms: _18  and  _20
REMARK    8  A    between atoms: _20  and  _21
REMARK    9  A    between atoms: _20  and  _23
REMARK   10  A    between atoms: _23  and  _24
REMARK   11  A    between atoms: _27  and  _29
REMARK   12  A    between atoms: _29  and  _30
REMARK   13  A    between atoms: _29  and  _32
REMARK   14  A    between atoms: _32  and  _33
REMARK   15  A    between atoms: _36  and  _38
REMARK   16  A    between atoms: _38  and  _39
REMARK   17  A    between atoms: _38  and  _41
REMARK   18  A    between atoms: _41  and  _42
REMARK   19  A    between atoms: _45  and  _47
REMARK   20  A    between atoms: _47  and  _48
REMARK   21  A    between atoms: _47  and  _50
REMARK   22  A    between atoms: _50  and  _51
REMARK   23  A    between atoms: _54  and  _56
REMARK   24  A    between atoms: _56  and  _57
REMARK   25  A    between atoms: _59  and  _61
REMARK   26  A    between atoms: _61  and  _62
REMARK   27  A    between atoms: _65  and  _67
REMARK   28  A    between atoms: _67  and  _68
REMARK   29  A    between atoms: _67  and  _70
REMARK   30  A    between atoms: _70  and  _71
REMARK   31  A    between atoms: _74  and  _76
REMARK   32  A    between atoms: _76  and  _77
REMARK   33  A    between atoms: _76  and  _79
REMARK   34  A    between atoms: _79  and  _80
REMARK   35  A    between atoms: _83  and  _85
REMARK   36  A    between atoms: _85  and  _86
REMARK   37  A    between atoms: _85  and  _88
REMARK   38  A    between atoms: _88  and  _89
REMARK   39  A    between atoms: _92  and  _94
REMARK   40  A    between atoms: _94  and  _95
REMARK   41  A    between atoms: _94  and  _97
REMARK   42  A    between atoms: _100  and  _102
REMARK   43  A    between atoms: _102  and  _103
REMARK   44  A    between atoms: _102  and  _105
REMARK   45  A    between atoms: _105  and  _106
REMARK   46  A    between atoms: _106  and  _107
REMARK   47  A    between atoms: _107  and  _108
REMARK   48  A    between atoms: _108  and  _109
REMARK   49  A    between atoms: _113  and  _115
REMARK   50  A    between atoms: _115  and  _116
REMARK   51  A    between atoms: _115  and  _118
REMARK   52  A    between atoms: _118  and  _119
REMARK   53  A    between atoms: _119  and  _120
REMARK   54  A    between atoms: _122  and  _124
REMARK   55  A    between atoms: _124  and  _125
REMARK   56  A    between atoms: _124  and  _127
REMARK   57  A    between atoms: _127  and  _128
REMARK   58  A    between atoms: _131  and  _133
REMARK   59  A    between atoms: _133  and  _134
REMARK   60  A    between atoms: _136  and  _138
REMARK   61  A    between atoms: _138  and  _139
REMARK   62  A    between atoms: _141  and  _143
REMARK   63  A    between atoms: _143  and  _144
REMARK   64  A    between atoms: _143  and  _146
REMARK   65  A    between atoms: _146  and  _147
REMARK   66  A    between atoms: _150  and  _152
REMARK   67  A    between atoms: _152  and  _153
REMARK   68  A    between atoms: _155  and  _157
REMARK   69  A    between atoms: _157  and  _158
REMARK   70  A    between atoms: _160  and  _162
REMARK   71  A    between atoms: _162  and  _163
REMARK   72  A    between atoms: _162  and  _165
REMARK   73  A    between atoms: _165  and  _166
REMARK   74  A    between atoms: _172  and  _174
REMARK   75  A    between atoms: _174  and  _175
REMARK   76  A    between atoms: _174  and  _177
REMARK   77  A    between atoms: _177  and  _178
REMARK   78  A    between atoms: _181  and  _183
REMARK   79  A    between atoms: _183  and  _184
REMARK   80  A    between atoms: _183  and  _186
REMARK   81  A    between atoms: _186  and  _187
REMARK   82  A    between atoms: _190  and  _192
REMARK   83  A    between atoms: _192  and  _193
REMARK   84  A    between atoms: _192  and  _195
REMARK   85  A    between atoms: _195  and  _196
REMARK   86  A    between atoms: _200  and  _201
REMARK   87  A    between atoms: _206  and  _208
REMARK   88  A    between atoms: _208  and  _209
REMARK   89  A    between atoms: _208  and  _211
REMARK   90  A    between atoms: _211  and  _212
REMARK   91  A    between atoms: _215  and  _217
REMARK   92  A    between atoms: _217  and  _218
REMARK   93  A    between atoms: _217  and  _220
REMARK   94  A    between atoms: _220  and  _221
REMARK   95  A    between atoms: _226  and  _228
REMARK   96  A    between atoms: _228  and  _229
REMARK   97  A    between atoms: _228  and  _231
REMARK   98  A    between atoms: _234  and  _236
REMARK   99  A    between atoms: _236  and  _237
REMARK  100  A    between atoms: _236  and  _239
REMARK  101  A    between atoms: _239  and  _240
REMARK  102  A    between atoms: _243  and  _245
REMARK  103  A    between atoms: _245  and  _246
REMARK  104  A    between atoms: _248  and  _250
REMARK  105  A    between atoms: _250  and  _251
REMARK  106  A    between atoms: _250  and  _253
REMARK  107  A    between atoms: _253  and  _254
REMARK  108  A    between atoms: _254  and  _255
REMARK  109  A    between atoms: _255  and  _256
REMARK  110  A    between atoms: _265  and  _267
REMARK  111  A    between atoms: _267  and  _268
REMARK  112  A    between atoms: _267  and  _270
REMARK  113  A    between atoms: _270  and  _271
REMARK  114  A    between atoms: _276  and  _278
REMARK  115  A    between atoms: _278  and  _279
REMARK  116  A    between atoms: _278  and  _281
REMARK  117  A    between atoms: _281  and  _282
REMARK  118  A    between atoms: _282  and  _283
REMARK  119  A    between atoms: _283  and  _284
REMARK  120  A    between atoms: _293  and  _295
REMARK  121  A    between atoms: _295  and  _296
REMARK  122  A    between atoms: _295  and  _298
REMARK  123  A    between atoms: _298  and  _299
REMARK  124  A    between atoms: _302  and  _304
REMARK  125  A    between atoms: _304  and  _305
REMARK  126  A    between atoms: _304  and  _307
REMARK  127  A    between atoms: _307  and  _308
REMARK  128  A    between atoms: _311  and  _313
REMARK  129  A    between atoms: _313  and  _314
REMARK  130  A    between atoms: _313  and  _316
REMARK  131  A    between atoms: _316  and  _317
REMARK  132  A    between atoms: _320  and  _322
REMARK  133  A    between atoms: _322  and  _323
REMARK  134  A    between atoms: _322  and  _325
REMARK  135  A    between atoms: _325  and  _326
REMARK  136  A    between atoms: _329  and  _331
REMARK  137  A    between atoms: _331  and  _332
REMARK  138  A    between atoms: _331  and  _334
REMARK  139  A    between atoms: _334  and  _335
REMARK  140  A    between atoms: _338  and  _340
REMARK  141  A    between atoms: _340  and  _341
REMARK  142  A    between atoms: _343  and  _345
REMARK  143  A    between atoms: _345  and  _346
REMARK  144  A    between atoms: _349  and  _351
REMARK  145  A    between atoms: _351  and  _352
REMARK  146  A    between atoms: _351  and  _354
REMARK  147  A    between atoms: _354  and  _355
REMARK  148  A    between atoms: _358  and  _360
REMARK  149  A    between atoms: _360  and  _361
REMARK  150  A    between atoms: _360  and  _363
REMARK  151  A    between atoms: _363  and  _364
REMARK  152  A    between atoms: _367  and  _369
REMARK  153  A    between atoms: _369  and  _370
REMARK  154  A    between atoms: _369  and  _372
REMARK  155  A    between atoms: _372  and  _373
REMARK  156  A    between atoms: _376  and  _378
REMARK  157  A    between atoms: _378  and  _379
REMARK  158  A    between atoms: _378  and  _381
REMARK  159  A    between atoms: _384  and  _386
REMARK  160  A    between atoms: _386  and  _387
REMARK  161  A    between atoms: _386  and  _389
REMARK  162  A    between atoms: _389  and  _390
REMARK  163  A    between atoms: _390  and  _391
REMARK  164  A    between atoms: _394  and  _396
REMARK  165  A    between atoms: _396  and  _397
REMARK  166  A    between atoms: _396  and  _399
REMARK  167  A    between atoms: _399  and  _400
REMARK  168  A    between atoms: _400  and  _401
REMARK  169  A    between atoms: _401  and  _402
REMARK  170  A    between atoms: _402  and  _403
REMARK  171  A    between atoms: _407  and  _409
REMARK  172  A    between atoms: _409  and  _410
REMARK  173  A    between atoms: _409  and  _412
REMARK  174  A    between atoms: _412  and  _413
REMARK  175  A    between atoms: _413  and  _414
REMARK  176  A    between atoms: _416  and  _418
REMARK  177  A    between atoms: _418  and  _419
REMARK  178  A    between atoms: _418  and  _421
REMARK  179  A    between atoms: _421  and  _422
REMARK  180  A    between atoms: _425  and  _427
REMARK  181  A    between atoms: _427  and  _428
REMARK  182  A    between atoms: _430  and  _432
REMARK  183  A    between atoms: _432  and  _433
REMARK  184  A    between atoms: _435  and  _437
REMARK  185  A    between atoms: _437  and  _438
REMARK  186  A    between atoms: _437  and  _440
REMARK  187  A    between atoms: _440  and  _441
REMARK  188  A    between atoms: _444  and  _446
REMARK  189  A    between atoms: _446  and  _447
REMARK  190  A    between atoms: _449  and  _451
REMARK  191  A    between atoms: _451  and  _452
REMARK  192  A    between atoms: _454  and  _456
REMARK  193  A    between atoms: _456  and  _457
REMARK  194  A    between atoms: _456  and  _459
REMARK  195  A    between atoms: _459  and  _460
REMARK  196  A    between atoms: _466  and  _468
REMARK  197  A    between atoms: _468  and  _469
REMARK  198  A    between atoms: _468  and  _471
REMARK  199  A    between atoms: _471  and  _472
REMARK  200  A    between atoms: _475  and  _477
REMARK  201  A    between atoms: _477  and  _478
REMARK  202  A    between atoms: _477  and  _480
REMARK  203  A    between atoms: _483  and  _485
REMARK  204  A    between atoms: _485  and  _486
REMARK  205  A    between atoms: _485  and  _488
REMARK  206  A    between atoms: _488  and  _489
REMARK  207  A    between atoms: _492  and  _494
REMARK  208  A    between atoms: _494  and  _495
REMARK  209  A    between atoms: _494  and  _497
REMARK  210  A    between atoms: _495  and  _496
REMARK  211  A    between atoms: _495  and  _501
REMARK  212  A    between atoms: _497  and  _498
REMARK  213  A    between atoms: _502  and  _503
REMARK  214  A    between atoms: _508  and  _510
REMARK  215  A    between atoms: _510  and  _511
REMARK  216  A    between atoms: _510  and  _513
REMARK  217  A    between atoms: _513  and  _514
REMARK  218  A    between atoms: _517  and  _519
REMARK  219  A    between atoms: _519  and  _520
REMARK  220  A    between atoms: _519  and  _522
REMARK  221  A    between atoms: _522  and  _523
REMARK  222  A    between atoms: _528  and  _530
REMARK  223  A    between atoms: _530  and  _531
REMARK  224  A    between atoms: _530  and  _533
REMARK  225  A    between atoms: _536  and  _538
REMARK  226  A    between atoms: _538  and  _539
REMARK  227  A    between atoms: _538  and  _541
REMARK  228  A    between atoms: _541  and  _542
REMARK  229  A    between atoms: _545  and  _547
REMARK  230  A    between atoms: _547  and  _548
REMARK  231  A    between atoms: _550  and  _552
REMARK  232  A    between atoms: _552  and  _553
REMARK  233  A    between atoms: _552  and  _555
REMARK  234  A    between atoms: _555  and  _556
REMARK  235  A    between atoms: _556  and  _557
REMARK  236  A    between atoms: _557  and  _558
REMARK                            x       y       z     vdW  Elec       q    Type
REMARK                         _______ _______ _______ _____ _____    ______ ____
ROOT
ATOM      1  O   HOH     1      13.639  15.661  11.146  0.00  0.00    +0.000 OA
ENDROOT
TORSDOF 0
REMARK  Name = ../refined-set-2016/4cp7/4cp7_pocket.pdb
REMARK  236 active torsions:
REMARK  status: ('A' for Active; 'I' for Inactive)
REMARK    1  A    between atoms: _1  and  _3
REMARK    2  A    between atoms: _3  and  _4
REMARK    3  A    between atoms: _3  and  _6
REMARK    4  A    between atoms: _6  and  _7
REMARK    5  A    between atoms: _7  and  _8
REMARK    6  A    between atoms: _8  and  _9
REMARK    7  A    between atoms: _18  and  _20
REMARK    8  A    between atoms: _20  and  _21
REMARK    9  A    between atoms: _20  and  _23
REMARK   10  A    between atoms: _23  and  _24
REMARK   11  A    between atoms: _27  and  _29
REMARK   12  A    between atoms: _29  and  _30
REMARK   13  A    between atoms: _29  and  _32
REMARK   14  A    between atoms: _32  and  _33
REMARK   15  A    between atoms: _36  and  _38
REMARK   16  A    between atoms: _38  and  _39
REMARK   17  A    between atoms: _38  and  _41
REMARK   18  A    between atoms: _41  and  _42
REMARK   19  A    between atoms: _45  and  _47
REMARK   20  A    between atoms: _47  and  _48
REMARK   21  A    between atoms: _47  and  _50
REMARK   22  A    between atoms: _50  and  _51
REMARK   23  A    between atoms: _54  and  _56
REMARK   24  A    between atoms: _56  and  _57
REMARK   25  A    between atoms: _59  and  _61
REMARK   26  A    between atoms: _61  and  _62
REMARK   27  A    between atoms: _65  and  _67
REMARK   28  A    between atoms: _67  and  _68
REMARK   29  A    between atoms: _67  and  _70
REMARK   30  A    between atoms: _70  and  _71
REMARK   31  A    between atoms: _74  and  _76
REMARK   32  A    between atoms: _76  and  _77
REMARK   33  A    between atoms: _76  and  _79
REMARK   34  A    between atoms: _79  and  _80
REMARK   35  A    between atoms: _83  and  _85
REMARK   36  A    between atoms: _85  and  _86
REMARK   37  A    between atoms: _85  and  _88
REMARK   38  A    between atoms: _88  and  _89
REMARK   39  A    between atoms: _92  and  _94
REMARK   40  A    between atoms: _94  and  _95
REMARK   41  A    between atoms: _94  and  _97
REMARK   42  A    between atoms: _100  and  _102
REMARK   43  A    between atoms: _102  and  _103
REMARK   44  A    between atoms: _102  and  _105
REMARK   45  A    between atoms: _105  and  _106
REMARK   46  A    between atoms: _106  and  _107
REMARK   47  A    between atoms: _107  and  _108
REMARK   48  A    between atoms: _108  and  _109
REMARK   49  A    between atoms: _113  and  _115
REMARK   50  A    between atoms: _115  and  _116
REMARK   51  A    between atoms: _115  and  _118
REMARK   52  A    between atoms: _118  and  _119
REMARK   53  A    between atoms: _119  and  _120
REMARK   54  A    between atoms: _122  and  _124
REMARK   55  A    between atoms: _124  and  _125
REMARK   56  A    between atoms: _124  and  _127
REMARK   57  A    between atoms: _127  and  _128
REMARK   58  A    between atoms: _131  and  _133
REMARK   59  A    between atoms: _133  and  _134
REMARK   60  A    between atoms: _136  and  _138
REMARK   61  A    between atoms: _138  and  _139
REMARK   62  A    between atoms: _141  and  _143
REMARK   63  A    between atoms: _143  and  _144
REMARK   64  A    between atoms: _143  and  _146
REMARK   65  A    between atoms: _146  and  _147
REMARK   66  A    between atoms: _150  and  _152
REMARK   67  A    between atoms: _152  and  _153
REMARK   68  A    between atoms: _155  and  _157
REMARK   69  A    between atoms: _157  and  _158
REMARK   70  A    between atoms: _160  and  _162
REMARK   71  A    between atoms: _162  and  _163
REMARK   72  A    between atoms: _162  and  _165
REMARK   73  A    between atoms: _165  and  _166
REMARK   74  A    between atoms: _172  and  _174
REMARK   75  A    between atoms: _174  and  _175
REMARK   76  A    between atoms: _174  and  _177
REMARK   77  A    between atoms: _177  and  _178
REMARK   78  A    between atoms: _181  and  _183
REMARK   79  A    between atoms: _183  and  _184
REMARK   80  A    between atoms: _183  and  _186
REMARK   81  A    between atoms: _186  and  _187
REMARK   82  A    between atoms: _190  and  _192
REMARK   83  A    between atoms: _192  and  _193
REMARK   84  A    between atoms: _192  and  _195
REMARK   85  A    between atoms: _195  and  _196
REMARK   86  A    between atoms: _200  and  _201
REMARK   87  A    between atoms: _206  and  _208
REMARK   88  A    between atoms: _208  and  _209
REMARK   89  A    between atoms: _208  and  _211
REMARK   90  A    between atoms: _211  and  _212
REMARK   91  A    between atoms: _215  and  _217
REMARK   92  A    between atoms: _217  and  _218
REMARK   93  A    between atoms: _217  and  _220
REMARK   94  A    between atoms: _220  and  _221
REMARK   95  A    between atoms: _226  and  _228
REMARK   96  A    between atoms: _228  and  _229
REMARK   97  A    between atoms: _228  and  _231
REMARK   98  A    between atoms: _234  and  _236
REMARK   99  A    between atoms: _236  and  _237
REMARK  100  A    between atoms: _236  and  _239
REMARK  101  A    between atoms: _239  and  _240
REMARK  102  A    between atoms: _243  and  _245
REMARK  103  A    between atoms: _245  and  _246
REMARK  104  A    between atoms: _248  and  _250
REMARK  105  A    between atoms: _250  and  _251
REMARK  106  A    between atoms: _250  and  _253
REMARK  107  A    between atoms: _253  and  _254
REMARK  108  A    between atoms: _254  and  _255
REMARK  109  A    between atoms: _255  and  _256
REMARK  110  A    between atoms: _265  and  _267
REMARK  111  A    between atoms: _267  and  _268
REMARK  112  A    between atoms: _267  and  _270
REMARK  113  A    between atoms: _270  and  _271
REMARK  114  A    between atoms: _276  and  _278
REMARK  115  A    between atoms: _278  and  _279
REMARK  116  A    between atoms: _278  and  _281
REMARK  117  A    between atoms: _281  and  _282
REMARK  118  A    between atoms: _282  and  _283
REMARK  119  A    between atoms: _283  and  _284
REMARK  120  A    between atoms: _293  and  _295
REMARK  121  A    between atoms: _295  and  _296
REMARK  122  A    between atoms: _295  and  _298
REMARK  123  A    between atoms: _298  and  _299
REMARK  124  A    between atoms: _302  and  _304
REMARK  125  A    between atoms: _304  and  _305
REMARK  126  A    between atoms: _304  and  _307
REMARK  127  A    between atoms: _307  and  _308
REMARK  128  A    between atoms: _311  and  _313
REMARK  129  A    between atoms: _313  and  _314
REMARK  130  A    between atoms: _313  and  _316
REMARK  131  A    between atoms: _316  and  _317
REMARK  132  A    between atoms: _320  and  _322
REMARK  133  A    between atoms: _322  and  _323
REMARK  134  A    between atoms: _322  and  _325
REMARK  135  A    between atoms: _325  and  _326
REMARK  136  A    between atoms: _329  and  _331
REMARK  137  A    between atoms: _331  and  _332
REMARK  138  A    between atoms: _331  and  _334
REMARK  139  A    between atoms: _334  and  _335
REMARK  140  A    between atoms: _338  and  _340
REMARK  141  A    between atoms: _340  and  _341
REMARK  142  A    between atoms: _343  and  _345
REMARK  143  A    between atoms: _345  and  _346
REMARK  144  A    between atoms: _349  and  _351
REMARK  145  A    between atoms: _351  and  _352
REMARK  146  A    between atoms: _351  and  _354
REMARK  147  A    between atoms: _354  and  _355
REMARK  148  A    between atoms: _358  and  _360
REMARK  149  A    between atoms: _360  and  _361
REMARK  150  A    between atoms: _360  and  _363
REMARK  151  A    between atoms: _363  and  _364
REMARK  152  A    between atoms: _367  and  _369
REMARK  153  A    between atoms: _369  and  _370
REMARK  154  A    between atoms: _369  and  _372
REMARK  155  A    between atoms: _372  and  _373
REMARK  156  A    between atoms: _376  and  _378
REMARK  157  A    between atoms: _378  and  _379
REMARK  158  A    between atoms: _378  and  _381
REMARK  159  A    between atoms: _384  and  _386
REMARK  160  A    between atoms: _386  and  _387
REMARK  161  A    between atoms: _386  and  _389
REMARK  162  A    between atoms: _389  and  _390
REMARK  163  A    between atoms: _390  and  _391
REMARK  164  A    between atoms: _394  and  _396
REMARK  165  A    between atoms: _396  and  _397
REMARK  166  A    between atoms: _396  and  _399
REMARK  167  A    between atoms: _399  and  _400
REMARK  168  A    between atoms: _400  and  _401
REMARK  169  A    between atoms: _401  and  _402
REMARK  170  A    between atoms: _402  and  _403
REMARK  171  A    between atoms: _407  and  _409
REMARK  172  A    between atoms: _409  and  _410
REMARK  173  A    between atoms: _409  and  _412
REMARK  174  A    between atoms: _412  and  _413
REMARK  175  A    between atoms: _413  and  _414
REMARK  176  A    between atoms: _416  and  _418
REMARK  177  A    between atoms: _418  and  _419
REMARK  178  A    between atoms: _418  and  _421
REMARK  179  A    between atoms: _421  and  _422
REMARK  180  A    between atoms: _425  and  _427
REMARK  181  A    between atoms: _427  and  _428
REMARK  182  A    between atoms: _430  and  _432
REMARK  183  A    between atoms: _432  and  _433
REMARK  184  A    between atoms: _435  and  _437
REMARK  185  A    between atoms: _437  and  _438
REMARK  186  A    between atoms: _437  and  _440
REMARK  187  A    between atoms: _440  and  _441
REMARK  188  A    between atoms: _444  and  _446
REMARK  189  A    between atoms: _446  and  _447
REMARK  190  A    between atoms: _449  and  _451
REMARK  191  A    between atoms: _451  and  _452
REMARK  192  A    between atoms: _454  and  _456
REMARK  193  A    between atoms: _456  and  _457
REMARK  194  A    between atoms: _456  and  _459
REMARK  195  A    between atoms: _459  and  _460
REMARK  196  A    between atoms: _466  and  _468
REMARK  197  A    between atoms: _468  and  _469
REMARK  198  A    between atoms: _468  and  _471
REMARK  199  A    between atoms: _471  and  _472
REMARK  200  A    between atoms: _475  and  _477
REMARK  201  A    between atoms: _477  and  _478
REMARK  202  A    between atoms: _477  and  _480
REMARK  203  A    between atoms: _483  and  _485
REMARK  204  A    between atoms: _485  and  _486
REMARK  205  A    between atoms: _485  and  _488
REMARK  206  A    between atoms: _488  and  _489
REMARK  207  A    between atoms: _492  and  _494
REMARK  208  A    between atoms: _494  and  _495
REMARK  209  A    between atoms: _494  and  _497
REMARK  210  A    between atoms: _495  and  _496
REMARK  211  A    between atoms: _495  and  _501
REMARK  212  A    between atoms: _497  and  _498
REMARK  213  A    between atoms: _502  and  _503
REMARK  214  A    between atoms: _508  and  _510
REMARK  215  A    between atoms: _510  and  _511
REMARK  216  A    between atoms: _510  and  _513
REMARK  217  A    between atoms: _513  and  _514
REMARK  218  A    between atoms: _517  and  _519
REMARK  219  A    between atoms: _519  and  _520
REMARK  220  A    between atoms: _519  and  _522
REMARK  221  A    between atoms: _522  and  _523
REMARK  222  A    between atoms: _528  and  _530
REMARK  223  A    between atoms: _530  and  _531
REMARK  224  A    between atoms: _530  and  _533
REMARK  225  A    between atoms: _536  and  _538
REMARK  226  A    between atoms: _538  and  _539
REMARK  227  A    between atoms: _538  and  _541
REMARK  228  A    between atoms: _541  and  _542
REMARK  229  A    between atoms: _545  and  _547
REMARK  230  A    between atoms: _547  and  _548
REMARK  231  A    between atoms: _550  and  _552
REMARK  232  A    between atoms: _552  and  _553
REMARK  233  A    between atoms: _552  and  _555
REMARK  234  A    between atoms: _555  and  _556
REMARK  235  A    between atoms: _556  and  _557
REMARK  236  A    between atoms: _557  and  _558
REMARK                            x       y       z     vdW  Elec       q    Type
REMARK                         _______ _______ _______ _____ _____    ______ ____
ROOT
ATOM      1  O   HOH     1       9.706  16.899  13.899  0.00  0.00    +0.000 OA
ENDROOT
TORSDOF 0
REMARK  Name = ../refined-set-2016/4cp7/4cp7_pocket.pdb
REMARK  236 active torsions:
REMARK  status: ('A' for Active; 'I' for Inactive)
REMARK    1  A    between atoms: _1  and  _3
REMARK    2  A    between atoms: _3  and  _4
REMARK    3  A    between atoms: _3  and  _6
REMARK    4  A    between atoms: _6  and  _7
REMARK    5  A    between atoms: _7  and  _8
REMARK    6  A    between atoms: _8  and  _9
REMARK    7  A    between atoms: _18  and  _20
REMARK    8  A    between atoms: _20  and  _21
REMARK    9  A    between atoms: _20  and  _23
REMARK   10  A    between atoms: _23  and  _24
REMARK   11  A    between atoms: _27  and  _29
REMARK   12  A    between atoms: _29  and  _30
REMARK   13  A    between atoms: _29  and  _32
REMARK   14  A    between atoms: _32  and  _33
REMARK   15  A    between atoms: _36  and  _38
REMARK   16  A    between atoms: _38  and  _39
REMARK   17  A    between atoms: _38  and  _41
REMARK   18  A    between atoms: _41  and  _42
REMARK   19  A    between atoms: _45  and  _47
REMARK   20  A    between atoms: _47  and  _48
REMARK   21  A    between atoms: _47  and  _50
REMARK   22  A    between atoms: _50  and  _51
REMARK   23  A    between atoms: _54  and  _56
REMARK   24  A    between atoms: _56  and  _57
REMARK   25  A    between atoms: _59  and  _61
REMARK   26  A    between atoms: _61  and  _62
REMARK   27  A    between atoms: _65  and  _67
REMARK   28  A    between atoms: _67  and  _68
REMARK   29  A    between atoms: _67  and  _70
REMARK   30  A    between atoms: _70  and  _71
REMARK   31  A    between atoms: _74  and  _76
REMARK   32  A    between atoms: _76  and  _77
REMARK   33  A    between atoms: _76  and  _79
REMARK   34  A    between atoms: _79  and  _80
REMARK   35  A    between atoms: _83  and  _85
REMARK   36  A    between atoms: _85  and  _86
REMARK   37  A    between atoms: _85  and  _88
REMARK   38  A    between atoms: _88  and  _89
REMARK   39  A    between atoms: _92  and  _94
REMARK   40  A    between atoms: _94  and  _95
REMARK   41  A    between atoms: _94  and  _97
REMARK   42  A    between atoms: _100  and  _102
REMARK   43  A    between atoms: _102  and  _103
REMARK   44  A    between atoms: _102  and  _105
REMARK   45  A    between atoms: _105  and  _106
REMARK   46  A    between atoms: _106  and  _107
REMARK   47  A    between atoms: _107  and  _108
REMARK   48  A    between atoms: _108  and  _109
REMARK   49  A    between atoms: _113  and  _115
REMARK   50  A    between atoms: _115  and  _116
REMARK   51  A    between atoms: _115  and  _118
REMARK   52  A    between atoms: _118  and  _119
REMARK   53  A    between atoms: _119  and  _120
REMARK   54  A    between atoms: _122  and  _124
REMARK   55  A    between atoms: _124  and  _125
REMARK   56  A    between atoms: _124  and  _127
REMARK   57  A    between atoms: _127  and  _128
REMARK   58  A    between atoms: _131  and  _133
REMARK   59  A    between atoms: _133  and  _134
REMARK   60  A    between atoms: _136  and  _138
REMARK   61  A    between atoms: _138  and  _139
REMARK   62  A    between atoms: _141  and  _143
REMARK   63  A    between atoms: _143  and  _144
REMARK   64  A    between atoms: _143  and  _146
REMARK   65  A    between atoms: _146  and  _147
REMARK   66  A    between atoms: _150  and  _152
REMARK   67  A    between atoms: _152  and  _153
REMARK   68  A    between atoms: _155  and  _157
REMARK   69  A    between atoms: _157  and  _158
REMARK   70  A    between atoms: _160  and  _162
REMARK   71  A    between atoms: _162  and  _163
REMARK   72  A    between atoms: _162  and  _165
REMARK   73  A    between atoms: _165  and  _166
REMARK   74  A    between atoms: _172  and  _174
REMARK   75  A    between atoms: _174  and  _175
REMARK   76  A    between atoms: _174  and  _177
REMARK   77  A    between atoms: _177  and  _178
REMARK   78  A    between atoms: _181  and  _183
REMARK   79  A    between atoms: _183  and  _184
REMARK   80  A    between atoms: _183  and  _186
REMARK   81  A    between atoms: _186  and  _187
REMARK   82  A    between atoms: _190  and  _192
REMARK   83  A    between atoms: _192  and  _193
REMARK   84  A    between atoms: _192  and  _195
REMARK   85  A    between atoms: _195  and  _196
REMARK   86  A    between atoms: _200  and  _201
REMARK   87  A    between atoms: _206  and  _208
REMARK   88  A    between atoms: _208  and  _209
REMARK   89  A    between atoms: _208  and  _211
REMARK   90  A    between atoms: _211  and  _212
REMARK   91  A    between atoms: _215  and  _217
REMARK   92  A    between atoms: _217  and  _218
REMARK   93  A    between atoms: _217  and  _220
REMARK   94  A    between atoms: _220  and  _221
REMARK   95  A    between atoms: _226  and  _228
REMARK   96  A    between atoms: _228  and  _229
REMARK   97  A    between atoms: _228  and  _231
REMARK   98  A    between atoms: _234  and  _236
REMARK   99  A    between atoms: _236  and  _237
REMARK  100  A    between atoms: _236  and  _239
REMARK  101  A    between atoms: _239  and  _240
REMARK  102  A    between atoms: _243  and  _245
REMARK  103  A    between atoms: _245  and  _246
REMARK  104  A    between atoms: _248  and  _250
REMARK  105  A    between atoms: _250  and  _251
REMARK  106  A    between atoms: _250  and  _253
REMARK  107  A    between atoms: _253  and  _254
REMARK  108  A    between atoms: _254  and  _255
REMARK  109  A    between atoms: _255  and  _256
REMARK  110  A    between atoms: _265  and  _267
REMARK  111  A    between atoms: _267  and  _268
REMARK  112  A    between atoms: _267  and  _270
REMARK  113  A    between atoms: _270  and  _271
REMARK  114  A    between atoms: _276  and  _278
REMARK  115  A    between atoms: _278  and  _279
REMARK  116  A    between atoms: _278  and  _281
REMARK  117  A    between atoms: _281  and  _282
REMARK  118  A    between atoms: _282  and  _283
REMARK  119  A    between atoms: _283  and  _284
REMARK  120  A    between atoms: _293  and  _295
REMARK  121  A    between atoms: _295  and  _296
REMARK  122  A    between atoms: _295  and  _298
REMARK  123  A    between atoms: _298  and  _299
REMARK  124  A    between atoms: _302  and  _304
REMARK  125  A    between atoms: _304  and  _305
REMARK  126  A    between atoms: _304  and  _307
REMARK  127  A    between atoms: _307  and  _308
REMARK  128  A    between atoms: _311  and  _313
REMARK  129  A    between atoms: _313  and  _314
REMARK  130  A    between atoms: _313  and  _316
REMARK  131  A    between atoms: _316  and  _317
REMARK  132  A    between atoms: _320  and  _322
REMARK  133  A    between atoms: _322  and  _323
REMARK  134  A    between atoms: _322  and  _325
REMARK  135  A    between atoms: _325  and  _326
REMARK  136  A    between atoms: _329  and  _331
REMARK  137  A    between atoms: _331  and  _332
REMARK  138  A    between atoms: _331  and  _334
REMARK  139  A    between atoms: _334  and  _335
REMARK  140  A    between atoms: _338  and  _340
REMARK  141  A    between atoms: _340  and  _341
REMARK  142  A    between atoms: _343  and  _345
REMARK  143  A    between atoms: _345  and  _346
REMARK  144  A    between atoms: _349  and  _351
REMARK  145  A    between atoms: _351  and  _352
REMARK  146  A    between atoms: _351  and  _354
REMARK  147  A    between atoms: _354  and  _355
REMARK  148  A    between atoms: _358  and  _360
REMARK  149  A    between atoms: _360  and  _361
REMARK  150  A    between atoms: _360  and  _363
REMARK  151  A    between atoms: _363  and  _364
REMARK  152  A    between atoms: _367  and  _369
REMARK  153  A    between atoms: _369  and  _370
REMARK  154  A    between atoms: _369  and  _372
REMARK  155  A    between atoms: _372  and  _373
REMARK  156  A    between atoms: _376  and  _378
REMARK  157  A    between atoms: _378  and  _379
REMARK  158  A    between atoms: _378  and  _381
REMARK  159  A    between atoms: _384  and  _386
REMARK  160  A    between atoms: _386  and  _387
REMARK  161  A    between atoms: _386  and  _389
REMARK  162  A    between atoms: _389  and  _390
REMARK  163  A    between atoms: _390  and  _391
REMARK  164  A    between atoms: _394  and  _396
REMARK  165  A    between atoms: _396  and  _397
REMARK  166  A    between atoms: _396  and  _399
REMARK  167  A    between atoms: _399  and  _400
REMARK  168  A    between atoms: _400  and  _401
REMARK  169  A    between atoms: _401  and  _402
REMARK  170  A    between atoms: _402  and  _403
REMARK  171  A    between atoms: _407  and  _409
REMARK  172  A    between atoms: _409  and  _410
REMARK  173  A    between atoms: _409  and  _412
REMARK  174  A    between atoms: _412  and  _413
REMARK  175  A    between atoms: _413  and  _414
REMARK  176  A    between atoms: _416  and  _418
REMARK  177  A    between atoms: _418  and  _419
REMARK  178  A    between atoms: _418  and  _421
REMARK  179  A    between atoms: _421  and  _422
REMARK  180  A    between atoms: _425  and  _427
REMARK  181  A    between atoms: _427  and  _428
REMARK  182  A    between atoms: _430  and  _432
REMARK  183  A    between atoms: _432  and  _433
REMARK  184  A    between atoms: _435  and  _437
REMARK  185  A    between atoms: _437  and  _438
REMARK  186  A    between atoms: _437  and  _440
REMARK  187  A    between atoms: _440  and  _441
REMARK  188  A    between atoms: _444  and  _446
REMARK  189  A    between atoms: _446  and  _447
REMARK  190  A    between atoms: _449  and  _451
REMARK  191  A    between atoms: _451  and  _452
REMARK  192  A    between atoms: _454  and  _456
REMARK  193  A    between atoms: _456  and  _457
REMARK  194  A    between atoms: _456  and  _459
REMARK  195  A    between atoms: _459  and  _460
REMARK  196  A    between atoms: _466  and  _468
REMARK  197  A    between atoms: _468  and  _469
REMARK  198  A    between atoms: _468  and  _471
REMARK  199  A    between atoms: _471  and  _472
REMARK  200  A    between atoms: _475  and  _477
REMARK  201  A    between atoms: _477  and  _478
REMARK  202  A    between atoms: _477  and  _480
REMARK  203  A    between atoms: _483  and  _485
REMARK  204  A    between atoms: _485  and  _486
REMARK  205  A    between atoms: _485  and  _488
REMARK  206  A    between atoms: _488  and  _489
REMARK  207  A    between atoms: _492  and  _494
REMARK  208  A    between atoms: _494  and  _495
REMARK  209  A    between atoms: _494  and  _497
REMARK  210  A    between atoms: _495  and  _496
REMARK  211  A    between atoms: _495  and  _501
REMARK  212  A    between atoms: _497  and  _498
REMARK  213  A    between atoms: _502  and  _503
REMARK  214  A    between atoms: _508  and  _510
REMARK  215  A    between atoms: _510  and  _511
REMARK  216  A    between atoms: _510  and  _513
REMARK  217  A    between atoms: _513  and  _514
REMARK  218  A    between atoms: _517  and  _519
REMARK  219  A    between atoms: _519  and  _520
REMARK  220  A    between atoms: _519  and  _522
REMARK  221  A    between atoms: _522  and  _523
REMARK  222  A    between atoms: _528  and  _530
REMARK  223  A    between atoms: _530  and  _531
REMARK  224  A    between atoms: _530  and  _533
REMARK  225  A    between atoms: _536  and  _538
REMARK  226  A    between atoms: _538  and  _539
REMARK  227  A    between atoms: _538  and  _541
REMARK  228  A    between atoms: _541  and  _542
REMARK  229  A    between atoms: _545  and  _547
REMARK  230  A    between atoms: _547  and  _548
REMARK  231  A    between atoms: _550  and  _552
REMARK  232  A    between atoms: _552  and  _553
REMARK  233  A    between atoms: _552  and  _555
REMARK  234  A    between atoms: _555  and  _556
REMARK  235  A    between atoms: _556  and  _557
REMARK  236  A    between atoms: _557  and  _558
REMARK                            x       y       z     vdW  Elec       q    Type
REMARK                         _______ _______ _______ _____ _____    ______ ____
ROOT
ATOM      1  O   HOH     1       2.373  22.097  -0.821  0.00  0.00    +0.000 OA
ENDROOT
TORSDOF 0
