REMARK  Name = ../refined-set-2016/2p3a/2p3a_pocket.pdb
REMARK  231 active torsions:
REMARK  status: ('A' for Active; 'I' for Inactive)
REMARK    1  A    between atoms: _1  and  _3
REMARK    2  A    between atoms: _3  and  _4
REMARK    3  A    between atoms: _3  and  _6
REMARK    4  A    between atoms: _6  and  _7
REMARK    5  A    between atoms: _7  and  _8
REMARK    6  A    between atoms: _8  and  _9
REMARK    7  A    between atoms: _18  and  _20
REMARK    8  A    between atoms: _20  and  _21
REMARK    9  A    between atoms: _20  and  _23
REMARK   10  A    between atoms: _23  and  _24
REMARK   11  A    between atoms: _27  and  _29
REMARK   12  A    between atoms: _29  and  _30
REMARK   13  A    between atoms: _29  and  _32
REMARK   14  A    between atoms: _32  and  _33
REMARK   15  A    between atoms: _36  and  _38
REMARK   16  A    between atoms: _38  and  _39
REMARK   17  A    between atoms: _38  and  _41
REMARK   18  A    between atoms: _41  and  _42
REMARK   19  A    between atoms: _45  and  _47
REMARK   20  A    between atoms: _47  and  _48
REMARK   21  A    between atoms: _47  and  _50
REMARK   22  A    between atoms: _50  and  _51
REMARK   23  A    between atoms: _54  and  _56
REMARK   24  A    between atoms: _56  and  _57
REMARK   25  A    between atoms: _59  and  _61
REMARK   26  A    between atoms: _61  and  _62
REMARK   27  A    between atoms: _65  and  _67
REMARK   28  A    between atoms: _67  and  _68
REMARK   29  A    between atoms: _67  and  _70
REMARK   30  A    between atoms: _70  and  _71
REMARK   31  A    between atoms: _74  and  _76
REMARK   32  A    between atoms: _76  and  _77
REMARK   33  A    between atoms: _76  and  _79
REMARK   34  A    between atoms: _79  and  _80
REMARK   35  A    between atoms: _83  and  _85
REMARK   36  A    between atoms: _85  and  _86
REMARK   37  A    between atoms: _85  and  _88
REMARK   38  A    between atoms: _88  and  _89
REMARK   39  A    between atoms: _92  and  _94
REMARK   40  A    between atoms: _94  and  _95
REMARK   41  A    between atoms: _94  and  _97
REMARK   42  A    between atoms: _100  and  _102
REMARK   43  A    between atoms: _102  and  _103
REMARK   44  A    between atoms: _102  and  _105
REMARK   45  A    between atoms: _105  and  _106
REMARK   46  A    between atoms: _106  and  _107
REMARK   47  A    between atoms: _107  and  _108
REMARK   48  A    between atoms: _117  and  _119
REMARK   49  A    between atoms: _119  and  _120
REMARK   50  A    between atoms: _119  and  _122
REMARK   51  A    between atoms: _122  and  _123
REMARK   52  A    between atoms: _123  and  _124
REMARK   53  A    between atoms: _126  and  _128
REMARK   54  A    between atoms: _128  and  _129
REMARK   55  A    between atoms: _128  and  _131
REMARK   56  A    between atoms: _131  and  _132
REMARK   57  A    between atoms: _135  and  _137
REMARK   58  A    between atoms: _137  and  _138
REMARK   59  A    between atoms: _140  and  _142
REMARK   60  A    between atoms: _142  and  _143
REMARK   61  A    between atoms: _145  and  _147
REMARK   62  A    between atoms: _147  and  _148
REMARK   63  A    between atoms: _147  and  _150
REMARK   64  A    between atoms: _150  and  _151
REMARK   65  A    between atoms: _154  and  _156
REMARK   66  A    between atoms: _156  and  _157
REMARK   67  A    between atoms: _159  and  _161
REMARK   68  A    between atoms: _161  and  _162
REMARK   69  A    between atoms: _164  and  _166
REMARK   70  A    between atoms: _166  and  _167
REMARK   71  A    between atoms: _166  and  _169
REMARK   72  A    between atoms: _169  and  _170
REMARK   73  A    between atoms: _176  and  _178
REMARK   74  A    between atoms: _178  and  _179
REMARK   75  A    between atoms: _178  and  _181
REMARK   76  A    between atoms: _184  and  _186
REMARK   77  A    between atoms: _186  and  _187
REMARK   78  A    between atoms: _186  and  _189
REMARK   79  A    between atoms: _192  and  _194
REMARK   80  A    between atoms: _194  and  _195
REMARK   81  A    between atoms: _194  and  _197
REMARK   82  A    between atoms: _197  and  _198
REMARK   83  A    between atoms: _198  and  _199
REMARK   84  A    between atoms: _204  and  _206
REMARK   85  A    between atoms: _206  and  _207
REMARK   86  A    between atoms: _206  and  _209
REMARK   87  A    between atoms: _209  and  _210
REMARK   88  A    between atoms: _213  and  _215
REMARK   89  A    between atoms: _215  and  _216
REMARK   90  A    between atoms: _215  and  _218
REMARK   91  A    between atoms: _218  and  _219
REMARK   92  A    between atoms: _223  and  _224
REMARK   93  A    between atoms: _229  and  _231
REMARK   94  A    between atoms: _231  and  _232
REMARK   95  A    between atoms: _235  and  _237
REMARK   96  A    between atoms: _237  and  _238
REMARK   97  A    between atoms: _237  and  _240
REMARK   98  A    between atoms: _240  and  _241
REMARK   99  A    between atoms: _246  and  _248
REMARK  100  A    between atoms: _248  and  _249
REMARK  101  A    between atoms: _248  and  _251
REMARK  102  A    between atoms: _251  and  _252
REMARK  103  A    between atoms: _255  and  _257
REMARK  104  A    between atoms: _257  and  _258
REMARK  105  A    between atoms: _257  and  _260
REMARK  106  A    between atoms: _260  and  _261
REMARK  107  A    between atoms: _264  and  _266
REMARK  108  A    between atoms: _266  and  _267
REMARK  109  A    between atoms: _269  and  _271
REMARK  110  A    between atoms: _271  and  _272
REMARK  111  A    between atoms: _271  and  _274
REMARK  112  A    between atoms: _274  and  _275
REMARK  113  A    between atoms: _275  and  _276
REMARK  114  A    between atoms: _276  and  _277
REMARK  115  A    between atoms: _286  and  _288
REMARK  116  A    between atoms: _288  and  _289
REMARK  117  A    between atoms: _288  and  _291
REMARK  118  A    between atoms: _291  and  _292
REMARK  119  A    between atoms: _292  and  _293
REMARK  120  A    between atoms: _293  and  _294
REMARK  121  A    between atoms: _303  and  _305
REMARK  122  A    between atoms: _305  and  _306
REMARK  123  A    between atoms: _305  and  _308
REMARK  124  A    between atoms: _308  and  _309
REMARK  125  A    between atoms: _312  and  _314
REMARK  126  A    between atoms: _314  and  _315
REMARK  127  A    between atoms: _314  and  _317
REMARK  128  A    between atoms: _317  and  _318
REMARK  129  A    between atoms: _321  and  _323
REMARK  130  A    between atoms: _323  and  _324
REMARK  131  A    between atoms: _323  and  _326
REMARK  132  A    between atoms: _326  and  _327
REMARK  133  A    between atoms: _330  and  _332
REMARK  134  A    between atoms: _332  and  _333
REMARK  135  A    between atoms: _332  and  _335
REMARK  136  A    between atoms: _335  and  _336
REMARK  137  A    between atoms: _339  and  _341
REMARK  138  A    between atoms: _341  and  _342
REMARK  139  A    between atoms: _344  and  _346
REMARK  140  A    between atoms: _346  and  _347
REMARK  141  A    between atoms: _350  and  _352
REMARK  142  A    between atoms: _352  and  _353
REMARK  143  A    between atoms: _352  and  _355
REMARK  144  A    between atoms: _355  and  _356
REMARK  145  A    between atoms: _359  and  _361
REMARK  146  A    between atoms: _361  and  _362
REMARK  147  A    between atoms: _361  and  _364
REMARK  148  A    between atoms: _364  and  _365
REMARK  149  A    between atoms: _368  and  _370
REMARK  150  A    between atoms: _370  and  _371
REMARK  151  A    between atoms: _370  and  _373
REMARK  152  A    between atoms: _373  and  _374
REMARK  153  A    between atoms: _377  and  _379
REMARK  154  A    between atoms: _379  and  _380
REMARK  155  A    between atoms: _379  and  _382
REMARK  156  A    between atoms: _385  and  _387
REMARK  157  A    between atoms: _387  and  _388
REMARK  158  A    between atoms: _387  and  _390
REMARK  159  A    between atoms: _390  and  _391
REMARK  160  A    between atoms: _394  and  _396
REMARK  161  A    between atoms: _396  and  _397
REMARK  162  A    between atoms: _396  and  _399
REMARK  163  A    between atoms: _399  and  _400
REMARK  164  A    between atoms: _400  and  _401
REMARK  165  A    between atoms: _401  and  _402
REMARK  166  A    between atoms: _411  and  _413
REMARK  167  A    between atoms: _413  and  _414
REMARK  168  A    between atoms: _413  and  _416
REMARK  169  A    between atoms: _416  and  _417
REMARK  170  A    between atoms: _417  and  _418
REMARK  171  A    between atoms: _420  and  _422
REMARK  172  A    between atoms: _422  and  _423
REMARK  173  A    between atoms: _422  and  _425
REMARK  174  A    between atoms: _425  and  _426
REMARK  175  A    between atoms: _429  and  _431
REMARK  176  A    between atoms: _431  and  _432
REMARK  177  A    between atoms: _434  and  _436
REMARK  178  A    between atoms: _436  and  _437
REMARK  179  A    between atoms: _439  and  _441
REMARK  180  A    between atoms: _441  and  _442
REMARK  181  A    between atoms: _441  and  _444
REMARK  182  A    between atoms: _444  and  _445
REMARK  183  A    between atoms: _448  and  _450
REMARK  184  A    between atoms: _450  and  _451
REMARK  185  A    between atoms: _453  and  _455
REMARK  186  A    between atoms: _455  and  _456
REMARK  187  A    between atoms: _458  and  _460
REMARK  188  A    between atoms: _460  and  _461
REMARK  189  A    between atoms: _460  and  _463
REMARK  190  A    between atoms: _463  and  _464
REMARK  191  A    between atoms: _470  and  _472
REMARK  192  A    between atoms: _472  and  _473
REMARK  193  A    between atoms: _472  and  _475
REMARK  194  A    between atoms: _478  and  _480
REMARK  195  A    between atoms: _480  and  _481
REMARK  196  A    between atoms: _480  and  _483
REMARK  197  A    between atoms: _486  and  _488
REMARK  198  A    between atoms: _488  and  _489
REMARK  199  A    between atoms: _488  and  _491
REMARK  200  A    between atoms: _491  and  _492
REMARK  201  A    between atoms: _495  and  _497
REMARK  202  A    between atoms: _497  and  _498
REMARK  203  A    between atoms: _497  and  _500
REMARK  204  A    between atoms: _500  and  _501
REMARK  205  A    between atoms: _505  and  _506
REMARK  206  A    between atoms: _511  and  _513
REMARK  207  A    between atoms: _513  and  _514
REMARK  208  A    between atoms: _517  and  _519
REMARK  209  A    between atoms: _519  and  _520
REMARK  210  A    between atoms: _519  and  _522
REMARK  211  A    between atoms: _522  and  _523
REMARK  212  A    between atoms: _528  and  _530
REMARK  213  A    between atoms: _530  and  _531
REMARK  214  A    between atoms: _530  and  _533
REMARK  215  A    between atoms: _533  and  _534
REMARK  216  A    between atoms: _537  and  _539
REMARK  217  A    between atoms: _539  and  _540
REMARK  218  A    between atoms: _539  and  _542
REMARK  219  A    between atoms: _542  and  _543
REMARK  220  A    between atoms: _546  and  _548
REMARK  221  A    between atoms: _548  and  _549
REMARK  222  A    between atoms: _551  and  _553
REMARK  223  A    between atoms: _553  and  _554
REMARK  224  A    between atoms: _553  and  _556
REMARK  225  A    between atoms: _556  and  _557
REMARK  226  A    between atoms: _557  and  _558
REMARK  227  A    between atoms: _558  and  _559
REMARK  228  A    between atoms: _568  and  _570
REMARK  229  A    between atoms: _570  and  _571
REMARK  230  A    between atoms: _570  and  _573
REMARK  231  A    between atoms: _573  and  _574
REMARK                            x       y       z     vdW  Elec       q    Type
REMARK                         _______ _______ _______ _____ _____    ______ ____
ROOT
ATOM      1  NE  ARG A   1      21.030  -8.042  -5.770  0.00  0.00    -0.265 N 
ATOM      2  HE  ARG A   1      20.927  -7.032  -5.994  0.00  0.00    +0.259 HD
ATOM      3  CZ  ARG A   1      20.261  -8.897  -6.410  0.00  0.00    +0.342 C 
ATOM      4  NH2 ARG A   1      20.376 -10.207  -6.178  0.00  0.00    -0.292 N 
ATOM      5 HH21 ARG A   1      21.075 -10.554  -5.490  0.00  0.00    +0.255 HD
ATOM      6 HH22 ARG A   1      19.767 -10.880  -6.685  0.00  0.00    +0.255 HD
ATOM      7  NH1 ARG A   1      19.386  -8.454  -7.293  0.00  0.00    -0.292 N 
ATOM      8 HH11 ARG A   1      19.307  -7.434  -7.480  0.00  0.00    +0.255 HD
ATOM      9 HH12 ARG A   1      18.776  -9.125  -7.802  0.00  0.00    +0.255 HD
ENDROOT
BRANCH   1  10
ATOM     10  CD  ARG A   1      22.022  -8.424  -4.762  0.00  0.00    +0.174 C 
BRANCH  10  11
ATOM     11  CG  ARG A   1      23.395  -7.948  -5.115  0.00  0.00    +0.045 C 
BRANCH  11  12
ATOM     12  CB  ARG A   1      24.484  -8.512  -4.224  0.00  0.00    +0.029 C 
BRANCH  12  13
ATOM     13  CA  ARG A   1      25.875  -8.023  -4.614  0.00  0.00    +0.133 C 
BRANCH  13  14
ATOM     14  N   ARG A   1      26.288  -8.483  -5.941  0.00  0.00    -0.239 NA
ATOM     15  H   ARG A   1      25.700  -9.158  -6.469  0.00  0.00    +0.142 HD
ENDBRANCH  13  14
BRANCH  13  16
ATOM     16  C   ARG A   1      26.929  -8.501  -3.624  0.00  0.00    +0.224 C 
ATOM     17  O   ARG A   1      27.328  -9.676  -3.635  0.00  0.00    -0.287 OA
ENDBRANCH  13  16
ENDBRANCH  12  13
ENDBRANCH  11  12
ENDBRANCH  10  11
ENDBRANCH   1  10
TORSDOF 6
REMARK  Name = ../refined-set-2016/2p3a/2p3a_pocket.pdb
REMARK  231 active torsions:
REMARK  status: ('A' for Active; 'I' for Inactive)
REMARK    1  A    between atoms: _1  and  _3
REMARK    2  A    between atoms: _3  and  _4
REMARK    3  A    between atoms: _3  and  _6
REMARK    4  A    between atoms: _6  and  _7
REMARK    5  A    between atoms: _7  and  _8
REMARK    6  A    between atoms: _8  and  _9
REMARK    7  A    between atoms: _18  and  _20
REMARK    8  A    between atoms: _20  and  _21
REMARK    9  A    between atoms: _20  and  _23
REMARK   10  A    between atoms: _23  and  _24
REMARK   11  A    between atoms: _27  and  _29
REMARK   12  A    between atoms: _29  and  _30
REMARK   13  A    between atoms: _29  and  _32
REMARK   14  A    between atoms: _32  and  _33
REMARK   15  A    between atoms: _36  and  _38
REMARK   16  A    between atoms: _38  and  _39
REMARK   17  A    between atoms: _38  and  _41
REMARK   18  A    between atoms: _41  and  _42
REMARK   19  A    between atoms: _45  and  _47
REMARK   20  A    between atoms: _47  and  _48
REMARK   21  A    between atoms: _47  and  _50
REMARK   22  A    between atoms: _50  and  _51
REMARK   23  A    between atoms: _54  and  _56
REMARK   24  A    between atoms: _56  and  _57
REMARK   25  A    between atoms: _59  and  _61
REMARK   26  A    between atoms: _61  and  _62
REMARK   27  A    between atoms: _65  and  _67
REMARK   28  A    between atoms: _67  and  _68
REMARK   29  A    between atoms: _67  and  _70
REMARK   30  A    between atoms: _70  and  _71
REMARK   31  A    between atoms: _74  and  _76
REMARK   32  A    between atoms: _76  and  _77
REMARK   33  A    between atoms: _76  and  _79
REMARK   34  A    between atoms: _79  and  _80
REMARK   35  A    between atoms: _83  and  _85
REMARK   36  A    between atoms: _85  and  _86
REMARK   37  A    between atoms: _85  and  _88
REMARK   38  A    between atoms: _88  and  _89
REMARK   39  A    between atoms: _92  and  _94
REMARK   40  A    between atoms: _94  and  _95
REMARK   41  A    between atoms: _94  and  _97
REMARK   42  A    between atoms: _100  and  _102
REMARK   43  A    between atoms: _102  and  _103
REMARK   44  A    between atoms: _102  and  _105
REMARK   45  A    between atoms: _105  and  _106
REMARK   46  A    between atoms: _106  and  _107
REMARK   47  A    between atoms: _107  and  _108
REMARK   48  A    between atoms: _117  and  _119
REMARK   49  A    between atoms: _119  and  _120
REMARK   50  A    between atoms: _119  and  _122
REMARK   51  A    between atoms: _122  and  _123
REMARK   52  A    between atoms: _123  and  _124
REMARK   53  A    between atoms: _126  and  _128
REMARK   54  A    between atoms: _128  and  _129
REMARK   55  A    between atoms: _128  and  _131
REMARK   56  A    between atoms: _131  and  _132
REMARK   57  A    between atoms: _135  and  _137
REMARK   58  A    between atoms: _137  and  _138
REMARK   59  A    between atoms: _140  and  _142
REMARK   60  A    between atoms: _142  and  _143
REMARK   61  A    between atoms: _145  and  _147
REMARK   62  A    between atoms: _147  and  _148
REMARK   63  A    between atoms: _147  and  _150
REMARK   64  A    between atoms: _150  and  _151
REMARK   65  A    between atoms: _154  and  _156
REMARK   66  A    between atoms: _156  and  _157
REMARK   67  A    between atoms: _159  and  _161
REMARK   68  A    between atoms: _161  and  _162
REMARK   69  A    between atoms: _164  and  _166
REMARK   70  A    between atoms: _166  and  _167
REMARK   71  A    between atoms: _166  and  _169
REMARK   72  A    between atoms: _169  and  _170
REMARK   73  A    between atoms: _176  and  _178
REMARK   74  A    between atoms: _178  and  _179
REMARK   75  A    between atoms: _178  and  _181
REMARK   76  A    between atoms: _184  and  _186
REMARK   77  A    between atoms: _186  and  _187
REMARK   78  A    between atoms: _186  and  _189
REMARK   79  A    between atoms: _192  and  _194
REMARK   80  A    between atoms: _194  and  _195
REMARK   81  A    between atoms: _194  and  _197
REMARK   82  A    between atoms: _197  and  _198
REMARK   83  A    between atoms: _198  and  _199
REMARK   84  A    between atoms: _204  and  _206
REMARK   85  A    between atoms: _206  and  _207
REMARK   86  A    between atoms: _206  and  _209
REMARK   87  A    between atoms: _209  and  _210
REMARK   88  A    between atoms: _213  and  _215
REMARK   89  A    between atoms: _215  and  _216
REMARK   90  A    between atoms: _215  and  _218
REMARK   91  A    between atoms: _218  and  _219
REMARK   92  A    between atoms: _223  and  _224
REMARK   93  A    between atoms: _229  and  _231
REMARK   94  A    between atoms: _231  and  _232
REMARK   95  A    between atoms: _235  and  _237
REMARK   96  A    between atoms: _237  and  _238
REMARK   97  A    between atoms: _237  and  _240
REMARK   98  A    between atoms: _240  and  _241
REMARK   99  A    between atoms: _246  and  _248
REMARK  100  A    between atoms: _248  and  _249
REMARK  101  A    between atoms: _248  and  _251
REMARK  102  A    between atoms: _251  and  _252
REMARK  103  A    between atoms: _255  and  _257
REMARK  104  A    between atoms: _257  and  _258
REMARK  105  A    between atoms: _257  and  _260
REMARK  106  A    between atoms: _260  and  _261
REMARK  107  A    between atoms: _264  and  _266
REMARK  108  A    between atoms: _266  and  _267
REMARK  109  A    between atoms: _269  and  _271
REMARK  110  A    between atoms: _271  and  _272
REMARK  111  A    between atoms: _271  and  _274
REMARK  112  A    between atoms: _274  and  _275
REMARK  113  A    between atoms: _275  and  _276
REMARK  114  A    between atoms: _276  and  _277
REMARK  115  A    between atoms: _286  and  _288
REMARK  116  A    between atoms: _288  and  _289
REMARK  117  A    between atoms: _288  and  _291
REMARK  118  A    between atoms: _291  and  _292
REMARK  119  A    between atoms: _292  and  _293
REMARK  120  A    between atoms: _293  and  _294
REMARK  121  A    between atoms: _303  and  _305
REMARK  122  A    between atoms: _305  and  _306
REMARK  123  A    between atoms: _305  and  _308
REMARK  124  A    between atoms: _308  and  _309
REMARK  125  A    between atoms: _312  and  _314
REMARK  126  A    between atoms: _314  and  _315
REMARK  127  A    between atoms: _314  and  _317
REMARK  128  A    between atoms: _317  and  _318
REMARK  129  A    between atoms: _321  and  _323
REMARK  130  A    between atoms: _323  and  _324
REMARK  131  A    between atoms: _323  and  _326
REMARK  132  A    between atoms: _326  and  _327
REMARK  133  A    between atoms: _330  and  _332
REMARK  134  A    between atoms: _332  and  _333
REMARK  135  A    between atoms: _332  and  _335
REMARK  136  A    between atoms: _335  and  _336
REMARK  137  A    between atoms: _339  and  _341
REMARK  138  A    between atoms: _341  and  _342
REMARK  139  A    between atoms: _344  and  _346
REMARK  140  A    between atoms: _346  and  _347
REMARK  141  A    between atoms: _350  and  _352
REMARK  142  A    between atoms: _352  and  _353
REMARK  143  A    between atoms: _352  and  _355
REMARK  144  A    between atoms: _355  and  _356
REMARK  145  A    between atoms: _359  and  _361
REMARK  146  A    between atoms: _361  and  _362
REMARK  147  A    between atoms: _361  and  _364
REMARK  148  A    between atoms: _364  and  _365
REMARK  149  A    between atoms: _368  and  _370
REMARK  150  A    between atoms: _370  and  _371
REMARK  151  A    between atoms: _370  and  _373
REMARK  152  A    between atoms: _373  and  _374
REMARK  153  A    between atoms: _377  and  _379
REMARK  154  A    between atoms: _379  and  _380
REMARK  155  A    between atoms: _379  and  _382
REMARK  156  A    between atoms: _385  and  _387
REMARK  157  A    between atoms: _387  and  _388
REMARK  158  A    between atoms: _387  and  _390
REMARK  159  A    between atoms: _390  and  _391
REMARK  160  A    between atoms: _394  and  _396
REMARK  161  A    between atoms: _396  and  _397
REMARK  162  A    between atoms: _396  and  _399
REMARK  163  A    between atoms: _399  and  _400
REMARK  164  A    between atoms: _400  and  _401
REMARK  165  A    between atoms: _401  and  _402
REMARK  166  A    between atoms: _411  and  _413
REMARK  167  A    between atoms: _413  and  _414
REMARK  168  A    between atoms: _413  and  _416
REMARK  169  A    between atoms: _416  and  _417
REMARK  170  A    between atoms: _417  and  _418
REMARK  171  A    between atoms: _420  and  _422
REMARK  172  A    between atoms: _422  and  _423
REMARK  173  A    between atoms: _422  and  _425
REMARK  174  A    between atoms: _425  and  _426
REMARK  175  A    between atoms: _429  and  _431
REMARK  176  A    between atoms: _431  and  _432
REMARK  177  A    between atoms: _434  and  _436
REMARK  178  A    between atoms: _436  and  _437
REMARK  179  A    between atoms: _439  and  _441
REMARK  180  A    between atoms: _441  and  _442
REMARK  181  A    between atoms: _441  and  _444
REMARK  182  A    between atoms: _444  and  _445
REMARK  183  A    between atoms: _448  and  _450
REMARK  184  A    between atoms: _450  and  _451
REMARK  185  A    between atoms: _453  and  _455
REMARK  186  A    between atoms: _455  and  _456
REMARK  187  A    between atoms: _458  and  _460
REMARK  188  A    between atoms: _460  and  _461
REMARK  189  A    between atoms: _460  and  _463
REMARK  190  A    between atoms: _463  and  _464
REMARK  191  A    between atoms: _470  and  _472
REMARK  192  A    between atoms: _472  and  _473
REMARK  193  A    between atoms: _472  and  _475
REMARK  194  A    between atoms: _478  and  _480
REMARK  195  A    between atoms: _480  and  _481
REMARK  196  A    between atoms: _480  and  _483
REMARK  197  A    between atoms: _486  and  _488
REMARK  198  A    between atoms: _488  and  _489
REMARK  199  A    between atoms: _488  and  _491
REMARK  200  A    between atoms: _491  and  _492
REMARK  201  A    between atoms: _495  and  _497
REMARK  202  A    between atoms: _497  and  _498
REMARK  203  A    between atoms: _497  and  _500
REMARK  204  A    between atoms: _500  and  _501
REMARK  205  A    between atoms: _505  and  _506
REMARK  206  A    between atoms: _511  and  _513
REMARK  207  A    between atoms: _513  and  _514
REMARK  208  A    between atoms: _517  and  _519
REMARK  209  A    between atoms: _519  and  _520
REMARK  210  A    between atoms: _519  and  _522
REMARK  211  A    between atoms: _522  and  _523
REMARK  212  A    between atoms: _528  and  _530
REMARK  213  A    between atoms: _530  and  _531
REMARK  214  A    between atoms: _530  and  _533
REMARK  215  A    between atoms: _533  and  _534
REMARK  216  A    between atoms: _537  and  _539
REMARK  217  A    between atoms: _539  and  _540
REMARK  218  A    between atoms: _539  and  _542
REMARK  219  A    between atoms: _542  and  _543
REMARK  220  A    between atoms: _546  and  _548
REMARK  221  A    between atoms: _548  and  _549
REMARK  222  A    between atoms: _551  and  _553
REMARK  223  A    between atoms: _553  and  _554
REMARK  224  A    between atoms: _553  and  _556
REMARK  225  A    between atoms: _556  and  _557
REMARK  226  A    between atoms: _557  and  _558
REMARK  227  A    between atoms: _558  and  _559
REMARK  228  A    between atoms: _568  and  _570
REMARK  229  A    between atoms: _570  and  _571
REMARK  230  A    between atoms: _570  and  _573
REMARK  231  A    between atoms: _573  and  _574
REMARK                            x       y       z     vdW  Elec       q    Type
REMARK                         _______ _______ _______ _____ _____    ______ ____
ROOT
ATOM      1  C   GLY A   5      21.755   2.273   3.014  0.00  0.00    +0.243 C 
ATOM      2  N   ALA A   6      22.197   1.454   3.959  0.00  0.00    -0.297 N 
ATOM      3  H   ALA A   6      23.180   1.119   3.902  0.00  0.00    +0.150 HD
ATOM      4  O   GLY A   5      20.588   2.737   2.993  0.00  0.00    -0.273 OA
ENDROOT
BRANCH   2   5
ATOM      5  CA  ALA A   6      21.362   0.993   5.089  0.00  0.00    +0.149 C 
ATOM      6  CB  ALA A   6      21.307  -0.538   5.139  0.00  0.00    +0.031 C 
BRANCH   5   7
ATOM      7  C   ALA A   6      21.998   1.552   6.360  0.00  0.00    +0.241 C 
ATOM      8  N   ASP A   7      21.243   2.355   7.103  0.00  0.00    -0.297 N 
ATOM      9  H   ASP A   7      20.275   2.575   6.793  0.00  0.00    +0.150 HD
ATOM     10  O   ALA A   6      23.160   1.281   6.658  0.00  0.00    -0.273 OA
BRANCH   8  11
ATOM     11  CA  ASP A   7      21.742   2.931   8.338  0.00  0.00    +0.160 C 
BRANCH  11  12
ATOM     12  C   ASP A   7      21.889   1.805   9.346  0.00  0.00    +0.241 C 
ATOM     13  O   ASP A   7      22.882   1.721  10.077  0.00  0.00    -0.273 OA
ATOM     14  N   ASP A   8      20.893   0.914   9.318  0.00  0.00    -0.297 N 
ATOM     15  H   ASP A   8      20.219   0.976   8.528  0.00  0.00    +0.150 HD
BRANCH  14  16
ATOM     16  CA  ASP A   8      20.678  -0.119  10.287  0.00  0.00    +0.160 C 
BRANCH  16  17
ATOM     17  C   ASP A   8      20.826  -1.489   9.633  0.00  0.00    +0.241 C 
ATOM     18  N   THR A   9      20.831  -2.505  10.463  0.00  0.00    -0.295 N 
ATOM     19  H   THR A   9      20.725  -2.317  11.480  0.00  0.00    +0.150 HD
ATOM     20  O   ASP A   8      20.866  -1.629   8.407  0.00  0.00    -0.273 OA
BRANCH  18  21
ATOM     21  CA  THR A   9      20.976  -3.859  10.030  0.00  0.00    +0.176 C 
BRANCH  21  22
ATOM     22  C   THR A   9      19.605  -4.513  10.156  0.00  0.00    +0.243 C 
ATOM     23  O   THR A   9      18.959  -4.390  11.188  0.00  0.00    -0.273 OA
ATOM     24  N   VAL A  10      19.142  -5.123   9.074  0.00  0.00    -0.298 N 
ATOM     25  H   VAL A  10      19.756  -5.206   8.238  0.00  0.00    +0.150 HD
BRANCH  24  26
ATOM     26  CA  VAL A  10      17.789  -5.684   9.023  0.00  0.00    +0.137 C 
BRANCH  26  27
ATOM     27  CB  VAL A  10      16.840  -4.967   8.051  0.00  0.00    +0.026 C 
ATOM     28  CG2 VAL A  10      15.443  -5.393   8.409  0.00  0.00    +0.002 C 
ATOM     29  CG1 VAL A  10      16.963  -3.464   8.136  0.00  0.00    +0.002 C 
ENDBRANCH  26  27
BRANCH  26  30
ATOM     30  C   VAL A  10      17.901  -7.112   8.551  0.00  0.00    +0.227 C 
ATOM     31  O   VAL A  10      18.425  -7.368   7.471  0.00  0.00    -0.286 OA
ENDBRANCH  26  30
ENDBRANCH  24  26
ENDBRANCH  21  22
BRANCH  21  32
ATOM     32  CB  THR A   9      22.000  -4.519  10.921  0.00  0.00    +0.137 C 
ATOM     33  CG2 THR A   9      22.015  -6.060  10.699  0.00  0.00    +0.034 C 
BRANCH  32  34
ATOM     34  OG1 THR A   9      23.300  -4.051  10.509  0.00  0.00    -0.382 OA
ATOM     35  HG1 THR A   9      23.341  -3.067  10.605  0.00  0.00    +0.210 HD
ENDBRANCH  32  34
ENDBRANCH  21  32
ENDBRANCH  18  21
ENDBRANCH  16  17
BRANCH  16  36
ATOM     36  CB  ASP A   8      19.260   0.041  10.850  0.00  0.00    +0.143 C 
BRANCH  36  37
ATOM     37  CG  ASP A   8      18.981   1.473  11.300  0.00  0.00    +0.367 C 
ATOM     38  OD2 ASP A   8      19.699   1.965  12.195  0.00  0.00    -0.246 OA
ATOM     39  OD1 ASP A   8      18.087   2.200  10.791  0.00  0.00    -0.246 OA
ENDBRANCH  36  37
ENDBRANCH  16  36
ENDBRANCH  14  16
ENDBRANCH  11  12
BRANCH  11  40
ATOM     40  CB  ASP A   7      20.705   3.902   8.931  0.00  0.00    +0.143 C 
BRANCH  40  41
ATOM     41  CG  ASP A   7      20.345   5.046   8.013  0.00  0.00    +0.367 C 
ATOM     42  OD2 ASP A   7      19.299   5.717   8.223  0.00  0.00    -0.246 OA
ATOM     43  OD1 ASP A   7      21.115   5.351   7.072  0.00  0.00    -0.246 OA
ENDBRANCH  40  41
ENDBRANCH  11  40
ENDBRANCH   8  11
ENDBRANCH   5   7
ENDBRANCH   2   5
BRANCH   1  44
ATOM     44  CA  GLY A   5      22.735   2.593   1.892  0.00  0.00    +0.176 C 
BRANCH  44  47
ATOM     45  C   THR A   4      25.016   2.092   2.601  0.00  0.00    +0.243 C 
ATOM     46  O   THR A   4      25.128   3.163   3.163  0.00  0.00    -0.273 OA
ATOM     47  N   GLY A   5      23.926   1.747   1.931  0.00  0.00    -0.295 N 
ATOM     48  H   GLY A   5      23.918   0.844   1.416  0.00  0.00    +0.150 HD
BRANCH  45  49
ATOM     49  CA  THR A   4      26.195   1.106   2.647  0.00  0.00    +0.176 C 
BRANCH  49  52
ATOM     50  C   ASP A   3      25.048  -0.990   2.974  0.00  0.00    +0.241 C 
ATOM     51  O   ASP A   3      24.560  -0.577   4.007  0.00  0.00    -0.273 OA
ATOM     52  N   THR A   4      25.817  -0.235   2.201  0.00  0.00    -0.295 N 
ATOM     53  H   THR A   4      26.149  -0.594   1.283  0.00  0.00    +0.150 HD
BRANCH  50  54
ATOM     54  CA  ASP A   3      24.742  -2.399   2.457  0.00  0.00    +0.160 C 
BRANCH  54  56
ATOM     55  C   LEU A   2      26.309  -4.178   2.335  0.00  0.00    +0.241 C 
ATOM     56  N   ASP A   3      25.609  -3.357   3.089  0.00  0.00    -0.297 N 
ATOM     57  H   ASP A   3      25.682  -3.400   4.126  0.00  0.00    +0.150 HD
ATOM     58  O   LEU A   2      26.462  -4.031   1.109  0.00  0.00    -0.273 OA
BRANCH  55  59
ATOM     59  CA  LEU A   2      26.880  -5.373   3.048  0.00  0.00    +0.149 C 
BRANCH  59  62
ATOM     60  C   LEU A   1      24.900  -6.776   2.802  0.00  0.00    +0.238 C 
ATOM     61  O   LEU A   1      24.319  -6.159   3.691  0.00  0.00    -0.274 OA
ATOM     62  N   LEU A   2      26.161  -6.535   2.472  0.00  0.00    -0.297 N 
ATOM     63  H   LEU A   2      26.650  -7.165   1.804  0.00  0.00    +0.150 HD
BRANCH  60  64
ATOM     64  CA  LEU A   1      24.199  -7.890   2.041  0.00  0.00    +0.145 C 
BRANCH  64  65
ATOM     65  N   LEU A   1      23.648  -8.845   2.959  0.00  0.00    -0.238 NA
ATOM     66  H   LEU A   1      22.689  -8.704   3.337  0.00  0.00    +0.142 HD
ENDBRANCH  64  65
BRANCH  64  67
ATOM     67  CB  LEU A   1      23.035  -7.351   1.251  0.00  0.00    +0.026 C 
BRANCH  67  68
ATOM     68  CG  LEU A   1      23.264  -6.287   0.209  0.00  0.00    +0.002 C 
ATOM     69  CD2 LEU A   1      21.883  -5.786  -0.230  0.00  0.00    +0.000 C 
ATOM     70  CD1 LEU A   1      24.035  -6.950  -0.914  0.00  0.00    +0.000 C 
ENDBRANCH  67  68
ENDBRANCH  64  67
ENDBRANCH  60  64
ENDBRANCH  59  62
BRANCH  59  71
ATOM     71  CB  LEU A   2      28.364  -5.443   2.792  0.00  0.00    +0.029 C 
BRANCH  71  72
ATOM     72  CG  LEU A   2      29.104  -6.605   3.471  0.00  0.00    +0.002 C 
ATOM     73  CD2 LEU A   2      29.020  -6.370   4.947  0.00  0.00    +0.000 C 
ATOM     74  CD1 LEU A   2      30.532  -6.483   2.937  0.00  0.00    +0.000 C 
ENDBRANCH  71  72
ENDBRANCH  59  71
ENDBRANCH  55  59
ENDBRANCH  54  56
BRANCH  54  75
ATOM     75  CB  ASP A   3      23.319  -2.762   2.786  0.00  0.00    +0.143 C 
BRANCH  75  76
ATOM     76  CG  ASP A   3      22.322  -1.848   2.106  0.00  0.00    +0.367 C 
ATOM     77  OD2 ASP A   3      21.125  -2.032   2.238  0.00  0.00    -0.246 OA
ATOM     78  OD1 ASP A   3      22.709  -0.880   1.420  0.00  0.00    -0.246 OA
ENDBRANCH  75  76
ENDBRANCH  54  75
ENDBRANCH  50  54
ENDBRANCH  49  52
BRANCH  49  79
ATOM     79  CB  THR A   4      27.317   1.680   1.807  0.00  0.00    +0.137 C 
ATOM     80  CG2 THR A   4      28.607   0.825   1.915  0.00  0.00    +0.034 C 
BRANCH  79  81
ATOM     81  OG1 THR A   4      26.946   1.604   0.424  0.00  0.00    -0.382 OA
ATOM     82  HG1 THR A   4      26.117   2.124   0.277  0.00  0.00    +0.210 HD
ENDBRANCH  79  81
ENDBRANCH  49  79
ENDBRANCH  45  49
ENDBRANCH  44  47
ENDBRANCH   1  44
TORSDOF 35
REMARK  Name = ../refined-set-2016/2p3a/2p3a_pocket.pdb
REMARK  231 active torsions:
REMARK  status: ('A' for Active; 'I' for Inactive)
REMARK    1  A    between atoms: _1  and  _3
REMARK    2  A    between atoms: _3  and  _4
REMARK    3  A    between atoms: _3  and  _6
REMARK    4  A    between atoms: _6  and  _7
REMARK    5  A    between atoms: _7  and  _8
REMARK    6  A    between atoms: _8  and  _9
REMARK    7  A    between atoms: _18  and  _20
REMARK    8  A    between atoms: _20  and  _21
REMARK    9  A    between atoms: _20  and  _23
REMARK   10  A    between atoms: _23  and  _24
REMARK   11  A    between atoms: _27  and  _29
REMARK   12  A    between atoms: _29  and  _30
REMARK   13  A    between atoms: _29  and  _32
REMARK   14  A    between atoms: _32  and  _33
REMARK   15  A    between atoms: _36  and  _38
REMARK   16  A    between atoms: _38  and  _39
REMARK   17  A    between atoms: _38  and  _41
REMARK   18  A    between atoms: _41  and  _42
REMARK   19  A    between atoms: _45  and  _47
REMARK   20  A    between atoms: _47  and  _48
REMARK   21  A    between atoms: _47  and  _50
REMARK   22  A    between atoms: _50  and  _51
REMARK   23  A    between atoms: _54  and  _56
REMARK   24  A    between atoms: _56  and  _57
REMARK   25  A    between atoms: _59  and  _61
REMARK   26  A    between atoms: _61  and  _62
REMARK   27  A    between atoms: _65  and  _67
REMARK   28  A    between atoms: _67  and  _68
REMARK   29  A    between atoms: _67  and  _70
REMARK   30  A    between atoms: _70  and  _71
REMARK   31  A    between atoms: _74  and  _76
REMARK   32  A    between atoms: _76  and  _77
REMARK   33  A    between atoms: _76  and  _79
REMARK   34  A    between atoms: _79  and  _80
REMARK   35  A    between atoms: _83  and  _85
REMARK   36  A    between atoms: _85  and  _86
REMARK   37  A    between atoms: _85  and  _88
REMARK   38  A    between atoms: _88  and  _89
REMARK   39  A    between atoms: _92  and  _94
REMARK   40  A    between atoms: _94  and  _95
REMARK   41  A    between atoms: _94  and  _97
REMARK   42  A    between atoms: _100  and  _102
REMARK   43  A    between atoms: _102  and  _103
REMARK   44  A    between atoms: _102  and  _105
REMARK   45  A    between atoms: _105  and  _106
REMARK   46  A    between atoms: _106  and  _107
REMARK   47  A    between atoms: _107  and  _108
REMARK   48  A    between atoms: _117  and  _119
REMARK   49  A    between atoms: _119  and  _120
REMARK   50  A    between atoms: _119  and  _122
REMARK   51  A    between atoms: _122  and  _123
REMARK   52  A    between atoms: _123  and  _124
REMARK   53  A    between atoms: _126  and  _128
REMARK   54  A    between atoms: _128  and  _129
REMARK   55  A    between atoms: _128  and  _131
REMARK   56  A    between atoms: _131  and  _132
REMARK   57  A    between atoms: _135  and  _137
REMARK   58  A    between atoms: _137  and  _138
REMARK   59  A    between atoms: _140  and  _142
REMARK   60  A    between atoms: _142  and  _143
REMARK   61  A    between atoms: _145  and  _147
REMARK   62  A    between atoms: _147  and  _148
REMARK   63  A    between atoms: _147  and  _150
REMARK   64  A    between atoms: _150  and  _151
REMARK   65  A    between atoms: _154  and  _156
REMARK   66  A    between atoms: _156  and  _157
REMARK   67  A    between atoms: _159  and  _161
REMARK   68  A    between atoms: _161  and  _162
REMARK   69  A    between atoms: _164  and  _166
REMARK   70  A    between atoms: _166  and  _167
REMARK   71  A    between atoms: _166  and  _169
REMARK   72  A    between atoms: _169  and  _170
REMARK   73  A    between atoms: _176  and  _178
REMARK   74  A    between atoms: _178  and  _179
REMARK   75  A    between atoms: _178  and  _181
REMARK   76  A    between atoms: _184  and  _186
REMARK   77  A    between atoms: _186  and  _187
REMARK   78  A    between atoms: _186  and  _189
REMARK   79  A    between atoms: _192  and  _194
REMARK   80  A    between atoms: _194  and  _195
REMARK   81  A    between atoms: _194  and  _197
REMARK   82  A    between atoms: _197  and  _198
REMARK   83  A    between atoms: _198  and  _199
REMARK   84  A    between atoms: _204  and  _206
REMARK   85  A    between atoms: _206  and  _207
REMARK   86  A    between atoms: _206  and  _209
REMARK   87  A    between atoms: _209  and  _210
REMARK   88  A    between atoms: _213  and  _215
REMARK   89  A    between atoms: _215  and  _216
REMARK   90  A    between atoms: _215  and  _218
REMARK   91  A    between atoms: _218  and  _219
REMARK   92  A    between atoms: _223  and  _224
REMARK   93  A    between atoms: _229  and  _231
REMARK   94  A    between atoms: _231  and  _232
REMARK   95  A    between atoms: _235  and  _237
REMARK   96  A    between atoms: _237  and  _238
REMARK   97  A    between atoms: _237  and  _240
REMARK   98  A    between atoms: _240  and  _241
REMARK   99  A    between atoms: _246  and  _248
REMARK  100  A    between atoms: _248  and  _249
REMARK  101  A    between atoms: _248  and  _251
REMARK  102  A    between atoms: _251  and  _252
REMARK  103  A    between atoms: _255  and  _257
REMARK  104  A    between atoms: _257  and  _258
REMARK  105  A    between atoms: _257  and  _260
REMARK  106  A    between atoms: _260  and  _261
REMARK  107  A    between atoms: _264  and  _266
REMARK  108  A    between atoms: _266  and  _267
REMARK  109  A    between atoms: _269  and  _271
REMARK  110  A    between atoms: _271  and  _272
REMARK  111  A    between atoms: _271  and  _274
REMARK  112  A    between atoms: _274  and  _275
REMARK  113  A    between atoms: _275  and  _276
REMARK  114  A    between atoms: _276  and  _277
REMARK  115  A    between atoms: _286  and  _288
REMARK  116  A    between atoms: _288  and  _289
REMARK  117  A    between atoms: _288  and  _291
REMARK  118  A    between atoms: _291  and  _292
REMARK  119  A    between atoms: _292  and  _293
REMARK  120  A    between atoms: _293  and  _294
REMARK  121  A    between atoms: _303  and  _305
REMARK  122  A    between atoms: _305  and  _306
REMARK  123  A    between atoms: _305  and  _308
REMARK  124  A    between atoms: _308  and  _309
REMARK  125  A    between atoms: _312  and  _314
REMARK  126  A    between atoms: _314  and  _315
REMARK  127  A    between atoms: _314  and  _317
REMARK  128  A    between atoms: _317  and  _318
REMARK  129  A    between atoms: _321  and  _323
REMARK  130  A    between atoms: _323  and  _324
REMARK  131  A    between atoms: _323  and  _326
REMARK  132  A    between atoms: _326  and  _327
REMARK  133  A    between atoms: _330  and  _332
REMARK  134  A    between atoms: _332  and  _333
REMARK  135  A    between atoms: _332  and  _335
REMARK  136  A    between atoms: _335  and  _336
REMARK  137  A    between atoms: _339  and  _341
REMARK  138  A    between atoms: _341  and  _342
REMARK  139  A    between atoms: _344  and  _346
REMARK  140  A    between atoms: _346  and  _347
REMARK  141  A    between atoms: _350  and  _352
REMARK  142  A    between atoms: _352  and  _353
REMARK  143  A    between atoms: _352  and  _355
REMARK  144  A    between atoms: _355  and  _356
REMARK  145  A    between atoms: _359  and  _361
REMARK  146  A    between atoms: _361  and  _362
REMARK  147  A    between atoms: _361  and  _364
REMARK  148  A    between atoms: _364  and  _365
REMARK  149  A    between atoms: _368  and  _370
REMARK  150  A    between atoms: _370  and  _371
REMARK  151  A    between atoms: _370  and  _373
REMARK  152  A    between atoms: _373  and  _374
REMARK  153  A    between atoms: _377  and  _379
REMARK  154  A    between atoms: _379  and  _380
REMARK  155  A    between atoms: _379  and  _382
REMARK  156  A    between atoms: _385  and  _387
REMARK  157  A    between atoms: _387  and  _388
REMARK  158  A    between atoms: _387  and  _390
REMARK  159  A    between atoms: _390  and  _391
REMARK  160  A    between atoms: _394  and  _396
REMARK  161  A    between atoms: _396  and  _397
REMARK  162  A    between atoms: _396  and  _399
REMARK  163  A    between atoms: _399  and  _400
REMARK  164  A    between atoms: _400  and  _401
REMARK  165  A    between atoms: _401  and  _402
REMARK  166  A    between atoms: _411  and  _413
REMARK  167  A    between atoms: _413  and  _414
REMARK  168  A    between atoms: _413  and  _416
REMARK  169  A    between atoms: _416  and  _417
REMARK  170  A    between atoms: _417  and  _418
REMARK  171  A    between atoms: _420  and  _422
REMARK  172  A    between atoms: _422  and  _423
REMARK  173  A    between atoms: _422  and  _425
REMARK  174  A    between atoms: _425  and  _426
REMARK  175  A    between atoms: _429  and  _431
REMARK  176  A    between atoms: _431  and  _432
REMARK  177  A    between atoms: _434  and  _436
REMARK  178  A    between atoms: _436  and  _437
REMARK  179  A    between atoms: _439  and  _441
REMARK  180  A    between atoms: _441  and  _442
REMARK  181  A    between atoms: _441  and  _444
REMARK  182  A    between atoms: _444  and  _445
REMARK  183  A    between atoms: _448  and  _450
REMARK  184  A    between atoms: _450  and  _451
REMARK  185  A    between atoms: _453  and  _455
REMARK  186  A    between atoms: _455  and  _456
REMARK  187  A    between atoms: _458  and  _460
REMARK  188  A    between atoms: _460  and  _461
REMARK  189  A    between atoms: _460  and  _463
REMARK  190  A    between atoms: _463  and  _464
REMARK  191  A    between atoms: _470  and  _472
REMARK  192  A    between atoms: _472  and  _473
REMARK  193  A    between atoms: _472  and  _475
REMARK  194  A    between atoms: _478  and  _480
REMARK  195  A    between atoms: _480  and  _481
REMARK  196  A    between atoms: _480  and  _483
REMARK  197  A    between atoms: _486  and  _488
REMARK  198  A    between atoms: _488  and  _489
REMARK  199  A    between atoms: _488  and  _491
REMARK  200  A    between atoms: _491  and  _492
REMARK  201  A    between atoms: _495  and  _497
REMARK  202  A    between atoms: _497  and  _498
REMARK  203  A    between atoms: _497  and  _500
REMARK  204  A    between atoms: _500  and  _501
REMARK  205  A    between atoms: _505  and  _506
REMARK  206  A    between atoms: _511  and  _513
REMARK  207  A    between atoms: _513  and  _514
REMARK  208  A    between atoms: _517  and  _519
REMARK  209  A    between atoms: _519  and  _520
REMARK  210  A    between atoms: _519  and  _522
REMARK  211  A    between atoms: _522  and  _523
REMARK  212  A    between atoms: _528  and  _530
REMARK  213  A    between atoms: _530  and  _531
REMARK  214  A    between atoms: _530  and  _533
REMARK  215  A    between atoms: _533  and  _534
REMARK  216  A    between atoms: _537  and  _539
REMARK  217  A    between atoms: _539  and  _540
REMARK  218  A    between atoms: _539  and  _542
REMARK  219  A    between atoms: _542  and  _543
REMARK  220  A    between atoms: _546  and  _548
REMARK  221  A    between atoms: _548  and  _549
REMARK  222  A    between atoms: _551  and  _553
REMARK  223  A    between atoms: _553  and  _554
REMARK  224  A    between atoms: _553  and  _556
REMARK  225  A    between atoms: _556  and  _557
REMARK  226  A    between atoms: _557  and  _558
REMARK  227  A    between atoms: _558  and  _559
REMARK  228  A    between atoms: _568  and  _570
REMARK  229  A    between atoms: _570  and  _571
REMARK  230  A    between atoms: _570  and  _573
REMARK  231  A    between atoms: _573  and  _574
REMARK                            x       y       z     vdW  Elec       q    Type
REMARK                         _______ _______ _______ _____ _____    ______ ____
ROOT
ATOM      1  C   GLY A   4      12.677   2.695   4.369  0.00  0.00    +0.243 C 
ATOM      2  O   GLY A   4      13.886   2.752   4.527  0.00  0.00    -0.273 OA
ATOM      3  N   GLY A   5      12.103   2.301   3.245  0.00  0.00    -0.295 N 
ATOM      4  H   GLY A   5      11.066   2.256   3.187  0.00  0.00    +0.150 HD
ENDROOT
BRANCH   1   5
ATOM      5  CA  GLY A   4      11.726   3.073   5.467  0.00  0.00    +0.176 C 
BRANCH   5   8
ATOM      6  C   ILE A   3      11.689   1.730   7.433  0.00  0.00    +0.241 C 
ATOM      7  O   ILE A   3      10.702   1.121   7.035  0.00  0.00    -0.273 OA
ATOM      8  N   GLY A   4      12.271   2.686   6.739  0.00  0.00    -0.295 N 
ATOM      9  H   GLY A   4      13.120   3.158   7.109  0.00  0.00    +0.150 HD
BRANCH   6  10
ATOM     10  CA  ILE A   3      12.323   1.388   8.747  0.00  0.00    +0.149 C 
BRANCH  10  13
ATOM     11  C   MET A   2      11.068   1.559  10.782  0.00  0.00    +0.241 C 
ATOM     12  O   MET A   2      11.822   2.430  11.192  0.00  0.00    -0.273 OA
ATOM     13  N   ILE A   3      11.267   0.937   9.634  0.00  0.00    -0.297 N 
ATOM     14  H   ILE A   3      10.670   0.128   9.367  0.00  0.00    +0.150 HD
BRANCH  11  15
ATOM     15  CA  MET A   2       9.877   1.112  11.608  0.00  0.00    +0.149 C 
BRANCH  15  18
ATOM     16  C   ARG A   1      10.065   0.059  13.767  0.00  0.00    +0.238 C 
ATOM     17  O   ARG A   1       9.447  -0.922  13.370  0.00  0.00    -0.274 OA
ATOM     18  N   MET A   2      10.268   1.119  13.007  0.00  0.00    -0.297 N 
ATOM     19  H   MET A   2      10.712   1.967  13.414  0.00  0.00    +0.150 HD
BRANCH  16  20
ATOM     20  CA  ARG A   1      10.600   0.121  15.197  0.00  0.00    +0.145 C 
BRANCH  20  21
ATOM     21  N   ARG A   1       9.945  -0.942  15.921  0.00  0.00    -0.238 NA
ATOM     22  H   ARG A   1       9.774  -1.849  15.441  0.00  0.00    +0.142 HD
ENDBRANCH  20  21
BRANCH  20  23
ATOM     23  CB  ARG A   1      12.120  -0.119  15.227  0.00  0.00    +0.030 C 
BRANCH  23  24
ATOM     24  CG  ARG A   1      13.020   1.107  15.105  0.00  0.00    +0.045 C 
BRANCH  24  25
ATOM     25  CD  ARG A   1      14.076   0.957  14.009  0.00  0.00    +0.174 C 
BRANCH  25  26
ATOM     26  NE  ARG A   1      15.328   1.683  14.263  0.00  0.00    -0.265 N 
ATOM     27  HE  ARG A   1      16.070   1.201  14.809  0.00  0.00    +0.259 HD
ATOM     28  CZ  ARG A   1      15.568   2.914  13.839  0.00  0.00    +0.342 C 
ATOM     29  NH2 ARG A   1      16.733   3.496  14.107  0.00  0.00    -0.292 N 
ATOM     30 HH21 ARG A   1      17.457   2.984  14.650  0.00  0.00    +0.255 HD
ATOM     31 HH22 ARG A   1      16.920   4.463  13.773  0.00  0.00    +0.255 HD
ATOM     32  NH1 ARG A   1      14.633   3.574  13.158  0.00  0.00    -0.292 N 
ATOM     33 HH11 ARG A   1      13.717   3.122  12.961  0.00  0.00    +0.255 HD
ATOM     34 HH12 ARG A   1      14.819   4.541  12.824  0.00  0.00    +0.255 HD
ENDBRANCH  25  26
ENDBRANCH  24  25
ENDBRANCH  23  24
ENDBRANCH  20  23
ENDBRANCH  16  20
ENDBRANCH  15  18
BRANCH  15  35
ATOM     35  CB  MET A   2       8.644   1.990  11.373  0.00  0.00    +0.041 C 
BRANCH  35  36
ATOM     36  CG  MET A   2       7.347   1.444  12.021  0.00  0.00    +0.060 C 
BRANCH  36  37
ATOM     37  SD  MET A   2       5.794   1.810  11.161  0.00  0.00    -0.139 S 
ATOM     38  CE  MET A   2       4.632   1.600  12.508  0.00  0.00    +0.069 C 
ENDBRANCH  36  37
ENDBRANCH  35  36
ENDBRANCH  15  35
ENDBRANCH  11  15
ENDBRANCH  10  13
BRANCH  10  39
ATOM     39  CB  ILE A   3      13.434   0.351   8.535  0.00  0.00    +0.027 C 
ATOM     40  CG2 ILE A   3      14.475   0.451   9.648  0.00  0.00    +0.002 C 
BRANCH  39  41
ATOM     41  CG1 ILE A   3      12.842  -1.045   8.348  0.00  0.00    +0.002 C 
ATOM     42  CD1 ILE A   3      13.784  -2.001   7.706  0.00  0.00    +0.000 C 
ENDBRANCH  39  41
ENDBRANCH  10  39
ENDBRANCH   6  10
ENDBRANCH   5   8
ENDBRANCH   1   5
BRANCH   3  43
ATOM     43  CA  GLY A   5      12.891   1.936   2.108  0.00  0.00    +0.176 C 
BRANCH  43  44
ATOM     44  C   GLY A   5      12.313   2.619   0.911  0.00  0.00    +0.243 C 
ATOM     45  O   GLY A   5      11.529   3.594   1.016  0.00  0.00    -0.273 OA
ATOM     46  N   ILE A   6      12.716   2.102  -0.239  0.00  0.00    -0.297 N 
ATOM     47  H   ILE A   6      13.528   1.453  -0.239  0.00  0.00    +0.150 HD
BRANCH  46  48
ATOM     48  CA  ILE A   6      12.068   2.407  -1.494  0.00  0.00    +0.149 C 
BRANCH  48  49
ATOM     49  C   ILE A   6      10.636   1.879  -1.381  0.00  0.00    +0.241 C 
ATOM     50  O   ILE A   6      10.403   0.727  -0.962  0.00  0.00    -0.273 OA
ATOM     51  N   GLY A   7       9.692   2.763  -1.671  0.00  0.00    -0.295 N 
ATOM     52  H   GLY A   7       9.979   3.739  -1.887  0.00  0.00    +0.150 HD
BRANCH  51  53
ATOM     53  CA  GLY A   7       8.270   2.436  -1.702  0.00  0.00    +0.176 C 
BRANCH  53  54
ATOM     54  C   GLY A   7       7.574   2.437  -0.363  0.00  0.00    +0.243 C 
ATOM     55  N   GLY A   8       8.034   1.589   0.540  0.00  0.00    -0.295 N 
ATOM     56  H   GLY A   8       8.915   1.065   0.365  0.00  0.00    +0.150 HD
ATOM     57  O   GLY A   7       6.633   3.214  -0.136  0.00  0.00    -0.273 OA
BRANCH  55  58
ATOM     58  CA  GLY A   8       7.305   1.394   1.772  0.00  0.00    +0.176 C 
BRANCH  58  59
ATOM     59  C   GLY A   8       8.072   1.544   3.069  0.00  0.00    +0.243 C 
ATOM     60  N   PHE A   9       7.375   1.222   4.173  0.00  0.00    -0.297 N 
ATOM     61  H   PHE A   9       6.407   0.870   4.032  0.00  0.00    +0.150 HD
ATOM     62  O   GLY A   8       9.252   1.938   3.098  0.00  0.00    -0.273 OA
BRANCH  60  63
ATOM     63  CA  PHE A   9       7.858   1.322   5.583  0.00  0.00    +0.153 C 
BRANCH  63  64
ATOM     64  C   PHE A   9       7.440   0.045   6.365  0.00  0.00    +0.241 C 
ATOM     65  N   VAL A  10       8.392  -0.786   6.827  0.00  0.00    -0.298 N 
ATOM     66  H   VAL A  10       9.393  -0.530   6.710  0.00  0.00    +0.150 HD
ATOM     67  O   PHE A   9       6.235  -0.164   6.553  0.00  0.00    -0.273 OA
BRANCH  65  68
ATOM     68  CA  VAL A  10       8.049  -2.034   7.486  0.00  0.00    +0.137 C 
BRANCH  68  69
ATOM     69  CB  VAL A  10       8.812  -3.276   6.965  0.00  0.00    +0.026 C 
ATOM     70  CG2 VAL A  10      10.319  -3.090   7.014  0.00  0.00    +0.002 C 
ATOM     71  CG1 VAL A  10       8.330  -3.677   5.568  0.00  0.00    +0.002 C 
ENDBRANCH  68  69
BRANCH  68  72
ATOM     72  C   VAL A  10       8.290  -1.893   8.962  0.00  0.00    +0.227 C 
ATOM     73  O   VAL A  10       9.248  -1.248   9.378  0.00  0.00    -0.286 OA
ENDBRANCH  68  72
ENDBRANCH  65  68
ENDBRANCH  63  64
BRANCH  63  74
ATOM     74  CB  PHE A   9       7.208   2.534   6.280  0.00  0.00    +0.055 C 
BRANCH  74  75
ATOM     75  CG  PHE A   9       8.096   3.774   6.399  0.00  0.00    -0.020 A 
ATOM     76  CD2 PHE A   9       8.988   3.916   7.464  0.00  0.00    -0.004 A 
ATOM     77  CE2 PHE A   9       9.800   5.063   7.586  0.00  0.00    -0.000 A 
ATOM     78  CZ  PHE A   9       9.694   6.094   6.650  0.00  0.00    -0.000 A 
ATOM     79  CE1 PHE A   9       8.779   5.980   5.602  0.00  0.00    -0.000 A 
ATOM     80  CD1 PHE A   9       7.983   4.823   5.488  0.00  0.00    -0.004 A 
ENDBRANCH  74  75
ENDBRANCH  63  74
ENDBRANCH  60  63
ENDBRANCH  58  59
ENDBRANCH  55  58
ENDBRANCH  53  54
ENDBRANCH  51  53
ENDBRANCH  48  49
BRANCH  48  81
ATOM     81  CB  ILE A   6      12.879   1.779  -2.683  0.00  0.00    +0.027 C 
ATOM     82  CG2 ILE A   6      11.969   1.123  -3.688  0.00  0.00    +0.002 C 
BRANCH  81  83
ATOM     83  CG1 ILE A   6      13.626   2.868  -3.458  0.00  0.00    +0.002 C 
ATOM     84  CD1 ILE A   6      14.445   3.794  -2.604  0.00  0.00    +0.000 C 
ENDBRANCH  81  83
ENDBRANCH  48  81
ENDBRANCH  46  48
ENDBRANCH  43  44
ENDBRANCH   3  43
TORSDOF 34
REMARK  Name = ../refined-set-2016/2p3a/2p3a_pocket.pdb
REMARK  231 active torsions:
REMARK  status: ('A' for Active; 'I' for Inactive)
REMARK    1  A    between atoms: _1  and  _3
REMARK    2  A    between atoms: _3  and  _4
REMARK    3  A    between atoms: _3  and  _6
REMARK    4  A    between atoms: _6  and  _7
REMARK    5  A    between atoms: _7  and  _8
REMARK    6  A    between atoms: _8  and  _9
REMARK    7  A    between atoms: _18  and  _20
REMARK    8  A    between atoms: _20  and  _21
REMARK    9  A    between atoms: _20  and  _23
REMARK   10  A    between atoms: _23  and  _24
REMARK   11  A    between atoms: _27  and  _29
REMARK   12  A    between atoms: _29  and  _30
REMARK   13  A    between atoms: _29  and  _32
REMARK   14  A    between atoms: _32  and  _33
REMARK   15  A    between atoms: _36  and  _38
REMARK   16  A    between atoms: _38  and  _39
REMARK   17  A    between atoms: _38  and  _41
REMARK   18  A    between atoms: _41  and  _42
REMARK   19  A    between atoms: _45  and  _47
REMARK   20  A    between atoms: _47  and  _48
REMARK   21  A    between atoms: _47  and  _50
REMARK   22  A    between atoms: _50  and  _51
REMARK   23  A    between atoms: _54  and  _56
REMARK   24  A    between atoms: _56  and  _57
REMARK   25  A    between atoms: _59  and  _61
REMARK   26  A    between atoms: _61  and  _62
REMARK   27  A    between atoms: _65  and  _67
REMARK   28  A    between atoms: _67  and  _68
REMARK   29  A    between atoms: _67  and  _70
REMARK   30  A    between atoms: _70  and  _71
REMARK   31  A    between atoms: _74  and  _76
REMARK   32  A    between atoms: _76  and  _77
REMARK   33  A    between atoms: _76  and  _79
REMARK   34  A    between atoms: _79  and  _80
REMARK   35  A    between atoms: _83  and  _85
REMARK   36  A    between atoms: _85  and  _86
REMARK   37  A    between atoms: _85  and  _88
REMARK   38  A    between atoms: _88  and  _89
REMARK   39  A    between atoms: _92  and  _94
REMARK   40  A    between atoms: _94  and  _95
REMARK   41  A    between atoms: _94  and  _97
REMARK   42  A    between atoms: _100  and  _102
REMARK   43  A    between atoms: _102  and  _103
REMARK   44  A    between atoms: _102  and  _105
REMARK   45  A    between atoms: _105  and  _106
REMARK   46  A    between atoms: _106  and  _107
REMARK   47  A    between atoms: _107  and  _108
REMARK   48  A    between atoms: _117  and  _119
REMARK   49  A    between atoms: _119  and  _120
REMARK   50  A    between atoms: _119  and  _122
REMARK   51  A    between atoms: _122  and  _123
REMARK   52  A    between atoms: _123  and  _124
REMARK   53  A    between atoms: _126  and  _128
REMARK   54  A    between atoms: _128  and  _129
REMARK   55  A    between atoms: _128  and  _131
REMARK   56  A    between atoms: _131  and  _132
REMARK   57  A    between atoms: _135  and  _137
REMARK   58  A    between atoms: _137  and  _138
REMARK   59  A    between atoms: _140  and  _142
REMARK   60  A    between atoms: _142  and  _143
REMARK   61  A    between atoms: _145  and  _147
REMARK   62  A    between atoms: _147  and  _148
REMARK   63  A    between atoms: _147  and  _150
REMARK   64  A    between atoms: _150  and  _151
REMARK   65  A    between atoms: _154  and  _156
REMARK   66  A    between atoms: _156  and  _157
REMARK   67  A    between atoms: _159  and  _161
REMARK   68  A    between atoms: _161  and  _162
REMARK   69  A    between atoms: _164  and  _166
REMARK   70  A    between atoms: _166  and  _167
REMARK   71  A    between atoms: _166  and  _169
REMARK   72  A    between atoms: _169  and  _170
REMARK   73  A    between atoms: _176  and  _178
REMARK   74  A    between atoms: _178  and  _179
REMARK   75  A    between atoms: _178  and  _181
REMARK   76  A    between atoms: _184  and  _186
REMARK   77  A    between atoms: _186  and  _187
REMARK   78  A    between atoms: _186  and  _189
REMARK   79  A    between atoms: _192  and  _194
REMARK   80  A    between atoms: _194  and  _195
REMARK   81  A    between atoms: _194  and  _197
REMARK   82  A    between atoms: _197  and  _198
REMARK   83  A    between atoms: _198  and  _199
REMARK   84  A    between atoms: _204  and  _206
REMARK   85  A    between atoms: _206  and  _207
REMARK   86  A    between atoms: _206  and  _209
REMARK   87  A    between atoms: _209  and  _210
REMARK   88  A    between atoms: _213  and  _215
REMARK   89  A    between atoms: _215  and  _216
REMARK   90  A    between atoms: _215  and  _218
REMARK   91  A    between atoms: _218  and  _219
REMARK   92  A    between atoms: _223  and  _224
REMARK   93  A    between atoms: _229  and  _231
REMARK   94  A    between atoms: _231  and  _232
REMARK   95  A    between atoms: _235  and  _237
REMARK   96  A    between atoms: _237  and  _238
REMARK   97  A    between atoms: _237  and  _240
REMARK   98  A    between atoms: _240  and  _241
REMARK   99  A    between atoms: _246  and  _248
REMARK  100  A    between atoms: _248  and  _249
REMARK  101  A    between atoms: _248  and  _251
REMARK  102  A    between atoms: _251  and  _252
REMARK  103  A    between atoms: _255  and  _257
REMARK  104  A    between atoms: _257  and  _258
REMARK  105  A    between atoms: _257  and  _260
REMARK  106  A    between atoms: _260  and  _261
REMARK  107  A    between atoms: _264  and  _266
REMARK  108  A    between atoms: _266  and  _267
REMARK  109  A    between atoms: _269  and  _271
REMARK  110  A    between atoms: _271  and  _272
REMARK  111  A    between atoms: _271  and  _274
REMARK  112  A    between atoms: _274  and  _275
REMARK  113  A    between atoms: _275  and  _276
REMARK  114  A    between atoms: _276  and  _277
REMARK  115  A    between atoms: _286  and  _288
REMARK  116  A    between atoms: _288  and  _289
REMARK  117  A    between atoms: _288  and  _291
REMARK  118  A    between atoms: _291  and  _292
REMARK  119  A    between atoms: _292  and  _293
REMARK  120  A    between atoms: _293  and  _294
REMARK  121  A    between atoms: _303  and  _305
REMARK  122  A    between atoms: _305  and  _306
REMARK  123  A    between atoms: _305  and  _308
REMARK  124  A    between atoms: _308  and  _309
REMARK  125  A    between atoms: _312  and  _314
REMARK  126  A    between atoms: _314  and  _315
REMARK  127  A    between atoms: _314  and  _317
REMARK  128  A    between atoms: _317  and  _318
REMARK  129  A    between atoms: _321  and  _323
REMARK  130  A    between atoms: _323  and  _324
REMARK  131  A    between atoms: _323  and  _326
REMARK  132  A    between atoms: _326  and  _327
REMARK  133  A    between atoms: _330  and  _332
REMARK  134  A    between atoms: _332  and  _333
REMARK  135  A    between atoms: _332  and  _335
REMARK  136  A    between atoms: _335  and  _336
REMARK  137  A    between atoms: _339  and  _341
REMARK  138  A    between atoms: _341  and  _342
REMARK  139  A    between atoms: _344  and  _346
REMARK  140  A    between atoms: _346  and  _347
REMARK  141  A    between atoms: _350  and  _352
REMARK  142  A    between atoms: _352  and  _353
REMARK  143  A    between atoms: _352  and  _355
REMARK  144  A    between atoms: _355  and  _356
REMARK  145  A    between atoms: _359  and  _361
REMARK  146  A    between atoms: _361  and  _362
REMARK  147  A    between atoms: _361  and  _364
REMARK  148  A    between atoms: _364  and  _365
REMARK  149  A    between atoms: _368  and  _370
REMARK  150  A    between atoms: _370  and  _371
REMARK  151  A    between atoms: _370  and  _373
REMARK  152  A    between atoms: _373  and  _374
REMARK  153  A    between atoms: _377  and  _379
REMARK  154  A    between atoms: _379  and  _380
REMARK  155  A    between atoms: _379  and  _382
REMARK  156  A    between atoms: _385  and  _387
REMARK  157  A    between atoms: _387  and  _388
REMARK  158  A    between atoms: _387  and  _390
REMARK  159  A    between atoms: _390  and  _391
REMARK  160  A    between atoms: _394  and  _396
REMARK  161  A    between atoms: _396  and  _397
REMARK  162  A    between atoms: _396  and  _399
REMARK  163  A    between atoms: _399  and  _400
REMARK  164  A    between atoms: _400  and  _401
REMARK  165  A    between atoms: _401  and  _402
REMARK  166  A    between atoms: _411  and  _413
REMARK  167  A    between atoms: _413  and  _414
REMARK  168  A    between atoms: _413  and  _416
REMARK  169  A    between atoms: _416  and  _417
REMARK  170  A    between atoms: _417  and  _418
REMARK  171  A    between atoms: _420  and  _422
REMARK  172  A    between atoms: _422  and  _423
REMARK  173  A    between atoms: _422  and  _425
REMARK  174  A    between atoms: _425  and  _426
REMARK  175  A    between atoms: _429  and  _431
REMARK  176  A    between atoms: _431  and  _432
REMARK  177  A    between atoms: _434  and  _436
REMARK  178  A    between atoms: _436  and  _437
REMARK  179  A    between atoms: _439  and  _441
REMARK  180  A    between atoms: _441  and  _442
REMARK  181  A    between atoms: _441  and  _444
REMARK  182  A    between atoms: _444  and  _445
REMARK  183  A    between atoms: _448  and  _450
REMARK  184  A    between atoms: _450  and  _451
REMARK  185  A    between atoms: _453  and  _455
REMARK  186  A    between atoms: _455  and  _456
REMARK  187  A    between atoms: _458  and  _460
REMARK  188  A    between atoms: _460  and  _461
REMARK  189  A    between atoms: _460  and  _463
REMARK  190  A    between atoms: _463  and  _464
REMARK  191  A    between atoms: _470  and  _472
REMARK  192  A    between atoms: _472  and  _473
REMARK  193  A    between atoms: _472  and  _475
REMARK  194  A    between atoms: _478  and  _480
REMARK  195  A    between atoms: _480  and  _481
REMARK  196  A    between atoms: _480  and  _483
REMARK  197  A    between atoms: _486  and  _488
REMARK  198  A    between atoms: _488  and  _489
REMARK  199  A    between atoms: _488  and  _491
REMARK  200  A    between atoms: _491  and  _492
REMARK  201  A    between atoms: _495  and  _497
REMARK  202  A    between atoms: _497  and  _498
REMARK  203  A    between atoms: _497  and  _500
REMARK  204  A    between atoms: _500  and  _501
REMARK  205  A    between atoms: _505  and  _506
REMARK  206  A    between atoms: _511  and  _513
REMARK  207  A    between atoms: _513  and  _514
REMARK  208  A    between atoms: _517  and  _519
REMARK  209  A    between atoms: _519  and  _520
REMARK  210  A    between atoms: _519  and  _522
REMARK  211  A    between atoms: _522  and  _523
REMARK  212  A    between atoms: _528  and  _530
REMARK  213  A    between atoms: _530  and  _531
REMARK  214  A    between atoms: _530  and  _533
REMARK  215  A    between atoms: _533  and  _534
REMARK  216  A    between atoms: _537  and  _539
REMARK  217  A    between atoms: _539  and  _540
REMARK  218  A    between atoms: _539  and  _542
REMARK  219  A    between atoms: _542  and  _543
REMARK  220  A    between atoms: _546  and  _548
REMARK  221  A    between atoms: _548  and  _549
REMARK  222  A    between atoms: _551  and  _553
REMARK  223  A    between atoms: _553  and  _554
REMARK  224  A    between atoms: _553  and  _556
REMARK  225  A    between atoms: _556  and  _557
REMARK  226  A    between atoms: _557  and  _558
REMARK  227  A    between atoms: _558  and  _559
REMARK  228  A    between atoms: _568  and  _570
REMARK  229  A    between atoms: _570  and  _571
REMARK  230  A    between atoms: _570  and  _573
REMARK  231  A    between atoms: _573  and  _574
REMARK                            x       y       z     vdW  Elec       q    Type
REMARK                         _______ _______ _______ _____ _____    ______ ____
ROOT
ATOM      1  CA  VAL A   1      10.568  -4.378  12.622  0.00  0.00    +0.133 C 
ENDROOT
BRANCH   1   2
ATOM      2  CB  VAL A   1      11.937  -3.979  11.982  0.00  0.00    +0.023 C 
ATOM      3  CG2 VAL A   1      12.412  -2.631  12.477  0.00  0.00    +0.002 C 
ATOM      4  CG1 VAL A   1      11.853  -4.003  10.457  0.00  0.00    +0.002 C 
ENDBRANCH   1   2
BRANCH   1   5
ATOM      5  N   VAL A   1       9.528  -3.444  12.295  0.00  0.00    -0.239 NA
ATOM      6  H   VAL A   1       9.484  -2.534  12.797  0.00  0.00    +0.142 HD
ENDBRANCH   1   5
BRANCH   1   7
ATOM      7  C   VAL A   1      10.707  -4.448  14.120  0.00  0.00    +0.224 C 
ATOM      8  O   VAL A   1      10.198  -3.596  14.841  0.00  0.00    -0.287 OA
ENDBRANCH   1   7
TORSDOF 3
REMARK  Name = ../refined-set-2016/2p3a/2p3a_pocket.pdb
REMARK  231 active torsions:
REMARK  status: ('A' for Active; 'I' for Inactive)
REMARK    1  A    between atoms: _1  and  _3
REMARK    2  A    between atoms: _3  and  _4
REMARK    3  A    between atoms: _3  and  _6
REMARK    4  A    between atoms: _6  and  _7
REMARK    5  A    between atoms: _7  and  _8
REMARK    6  A    between atoms: _8  and  _9
REMARK    7  A    between atoms: _18  and  _20
REMARK    8  A    between atoms: _20  and  _21
REMARK    9  A    between atoms: _20  and  _23
REMARK   10  A    between atoms: _23  and  _24
REMARK   11  A    between atoms: _27  and  _29
REMARK   12  A    between atoms: _29  and  _30
REMARK   13  A    between atoms: _29  and  _32
REMARK   14  A    between atoms: _32  and  _33
REMARK   15  A    between atoms: _36  and  _38
REMARK   16  A    between atoms: _38  and  _39
REMARK   17  A    between atoms: _38  and  _41
REMARK   18  A    between atoms: _41  and  _42
REMARK   19  A    between atoms: _45  and  _47
REMARK   20  A    between atoms: _47  and  _48
REMARK   21  A    between atoms: _47  and  _50
REMARK   22  A    between atoms: _50  and  _51
REMARK   23  A    between atoms: _54  and  _56
REMARK   24  A    between atoms: _56  and  _57
REMARK   25  A    between atoms: _59  and  _61
REMARK   26  A    between atoms: _61  and  _62
REMARK   27  A    between atoms: _65  and  _67
REMARK   28  A    between atoms: _67  and  _68
REMARK   29  A    between atoms: _67  and  _70
REMARK   30  A    between atoms: _70  and  _71
REMARK   31  A    between atoms: _74  and  _76
REMARK   32  A    between atoms: _76  and  _77
REMARK   33  A    between atoms: _76  and  _79
REMARK   34  A    between atoms: _79  and  _80
REMARK   35  A    between atoms: _83  and  _85
REMARK   36  A    between atoms: _85  and  _86
REMARK   37  A    between atoms: _85  and  _88
REMARK   38  A    between atoms: _88  and  _89
REMARK   39  A    between atoms: _92  and  _94
REMARK   40  A    between atoms: _94  and  _95
REMARK   41  A    between atoms: _94  and  _97
REMARK   42  A    between atoms: _100  and  _102
REMARK   43  A    between atoms: _102  and  _103
REMARK   44  A    between atoms: _102  and  _105
REMARK   45  A    between atoms: _105  and  _106
REMARK   46  A    between atoms: _106  and  _107
REMARK   47  A    between atoms: _107  and  _108
REMARK   48  A    between atoms: _117  and  _119
REMARK   49  A    between atoms: _119  and  _120
REMARK   50  A    between atoms: _119  and  _122
REMARK   51  A    between atoms: _122  and  _123
REMARK   52  A    between atoms: _123  and  _124
REMARK   53  A    between atoms: _126  and  _128
REMARK   54  A    between atoms: _128  and  _129
REMARK   55  A    between atoms: _128  and  _131
REMARK   56  A    between atoms: _131  and  _132
REMARK   57  A    between atoms: _135  and  _137
REMARK   58  A    between atoms: _137  and  _138
REMARK   59  A    between atoms: _140  and  _142
REMARK   60  A    between atoms: _142  and  _143
REMARK   61  A    between atoms: _145  and  _147
REMARK   62  A    between atoms: _147  and  _148
REMARK   63  A    between atoms: _147  and  _150
REMARK   64  A    between atoms: _150  and  _151
REMARK   65  A    between atoms: _154  and  _156
REMARK   66  A    between atoms: _156  and  _157
REMARK   67  A    between atoms: _159  and  _161
REMARK   68  A    between atoms: _161  and  _162
REMARK   69  A    between atoms: _164  and  _166
REMARK   70  A    between atoms: _166  and  _167
REMARK   71  A    between atoms: _166  and  _169
REMARK   72  A    between atoms: _169  and  _170
REMARK   73  A    between atoms: _176  and  _178
REMARK   74  A    between atoms: _178  and  _179
REMARK   75  A    between atoms: _178  and  _181
REMARK   76  A    between atoms: _184  and  _186
REMARK   77  A    between atoms: _186  and  _187
REMARK   78  A    between atoms: _186  and  _189
REMARK   79  A    between atoms: _192  and  _194
REMARK   80  A    between atoms: _194  and  _195
REMARK   81  A    between atoms: _194  and  _197
REMARK   82  A    between atoms: _197  and  _198
REMARK   83  A    between atoms: _198  and  _199
REMARK   84  A    between atoms: _204  and  _206
REMARK   85  A    between atoms: _206  and  _207
REMARK   86  A    between atoms: _206  and  _209
REMARK   87  A    between atoms: _209  and  _210
REMARK   88  A    between atoms: _213  and  _215
REMARK   89  A    between atoms: _215  and  _216
REMARK   90  A    between atoms: _215  and  _218
REMARK   91  A    between atoms: _218  and  _219
REMARK   92  A    between atoms: _223  and  _224
REMARK   93  A    between atoms: _229  and  _231
REMARK   94  A    between atoms: _231  and  _232
REMARK   95  A    between atoms: _235  and  _237
REMARK   96  A    between atoms: _237  and  _238
REMARK   97  A    between atoms: _237  and  _240
REMARK   98  A    between atoms: _240  and  _241
REMARK   99  A    between atoms: _246  and  _248
REMARK  100  A    between atoms: _248  and  _249
REMARK  101  A    between atoms: _248  and  _251
REMARK  102  A    between atoms: _251  and  _252
REMARK  103  A    between atoms: _255  and  _257
REMARK  104  A    between atoms: _257  and  _258
REMARK  105  A    between atoms: _257  and  _260
REMARK  106  A    between atoms: _260  and  _261
REMARK  107  A    between atoms: _264  and  _266
REMARK  108  A    between atoms: _266  and  _267
REMARK  109  A    between atoms: _269  and  _271
REMARK  110  A    between atoms: _271  and  _272
REMARK  111  A    between atoms: _271  and  _274
REMARK  112  A    between atoms: _274  and  _275
REMARK  113  A    between atoms: _275  and  _276
REMARK  114  A    between atoms: _276  and  _277
REMARK  115  A    between atoms: _286  and  _288
REMARK  116  A    between atoms: _288  and  _289
REMARK  117  A    between atoms: _288  and  _291
REMARK  118  A    between atoms: _291  and  _292
REMARK  119  A    between atoms: _292  and  _293
REMARK  120  A    between atoms: _293  and  _294
REMARK  121  A    between atoms: _303  and  _305
REMARK  122  A    between atoms: _305  and  _306
REMARK  123  A    between atoms: _305  and  _308
REMARK  124  A    between atoms: _308  and  _309
REMARK  125  A    between atoms: _312  and  _314
REMARK  126  A    between atoms: _314  and  _315
REMARK  127  A    between atoms: _314  and  _317
REMARK  128  A    between atoms: _317  and  _318
REMARK  129  A    between atoms: _321  and  _323
REMARK  130  A    between atoms: _323  and  _324
REMARK  131  A    between atoms: _323  and  _326
REMARK  132  A    between atoms: _326  and  _327
REMARK  133  A    between atoms: _330  and  _332
REMARK  134  A    between atoms: _332  and  _333
REMARK  135  A    between atoms: _332  and  _335
REMARK  136  A    between atoms: _335  and  _336
REMARK  137  A    between atoms: _339  and  _341
REMARK  138  A    between atoms: _341  and  _342
REMARK  139  A    between atoms: _344  and  _346
REMARK  140  A    between atoms: _346  and  _347
REMARK  141  A    between atoms: _350  and  _352
REMARK  142  A    between atoms: _352  and  _353
REMARK  143  A    between atoms: _352  and  _355
REMARK  144  A    between atoms: _355  and  _356
REMARK  145  A    between atoms: _359  and  _361
REMARK  146  A    between atoms: _361  and  _362
REMARK  147  A    between atoms: _361  and  _364
REMARK  148  A    between atoms: _364  and  _365
REMARK  149  A    between atoms: _368  and  _370
REMARK  150  A    between atoms: _370  and  _371
REMARK  151  A    between atoms: _370  and  _373
REMARK  152  A    between atoms: _373  and  _374
REMARK  153  A    between atoms: _377  and  _379
REMARK  154  A    between atoms: _379  and  _380
REMARK  155  A    between atoms: _379  and  _382
REMARK  156  A    between atoms: _385  and  _387
REMARK  157  A    between atoms: _387  and  _388
REMARK  158  A    between atoms: _387  and  _390
REMARK  159  A    between atoms: _390  and  _391
REMARK  160  A    between atoms: _394  and  _396
REMARK  161  A    between atoms: _396  and  _397
REMARK  162  A    between atoms: _396  and  _399
REMARK  163  A    between atoms: _399  and  _400
REMARK  164  A    between atoms: _400  and  _401
REMARK  165  A    between atoms: _401  and  _402
REMARK  166  A    between atoms: _411  and  _413
REMARK  167  A    between atoms: _413  and  _414
REMARK  168  A    between atoms: _413  and  _416
REMARK  169  A    between atoms: _416  and  _417
REMARK  170  A    between atoms: _417  and  _418
REMARK  171  A    between atoms: _420  and  _422
REMARK  172  A    between atoms: _422  and  _423
REMARK  173  A    between atoms: _422  and  _425
REMARK  174  A    between atoms: _425  and  _426
REMARK  175  A    between atoms: _429  and  _431
REMARK  176  A    between atoms: _431  and  _432
REMARK  177  A    between atoms: _434  and  _436
REMARK  178  A    between atoms: _436  and  _437
REMARK  179  A    between atoms: _439  and  _441
REMARK  180  A    between atoms: _441  and  _442
REMARK  181  A    between atoms: _441  and  _444
REMARK  182  A    between atoms: _444  and  _445
REMARK  183  A    between atoms: _448  and  _450
REMARK  184  A    between atoms: _450  and  _451
REMARK  185  A    between atoms: _453  and  _455
REMARK  186  A    between atoms: _455  and  _456
REMARK  187  A    between atoms: _458  and  _460
REMARK  188  A    between atoms: _460  and  _461
REMARK  189  A    between atoms: _460  and  _463
REMARK  190  A    between atoms: _463  and  _464
REMARK  191  A    between atoms: _470  and  _472
REMARK  192  A    between atoms: _472  and  _473
REMARK  193  A    between atoms: _472  and  _475
REMARK  194  A    between atoms: _478  and  _480
REMARK  195  A    between atoms: _480  and  _481
REMARK  196  A    between atoms: _480  and  _483
REMARK  197  A    between atoms: _486  and  _488
REMARK  198  A    between atoms: _488  and  _489
REMARK  199  A    between atoms: _488  and  _491
REMARK  200  A    between atoms: _491  and  _492
REMARK  201  A    between atoms: _495  and  _497
REMARK  202  A    between atoms: _497  and  _498
REMARK  203  A    between atoms: _497  and  _500
REMARK  204  A    between atoms: _500  and  _501
REMARK  205  A    between atoms: _505  and  _506
REMARK  206  A    between atoms: _511  and  _513
REMARK  207  A    between atoms: _513  and  _514
REMARK  208  A    between atoms: _517  and  _519
REMARK  209  A    between atoms: _519  and  _520
REMARK  210  A    between atoms: _519  and  _522
REMARK  211  A    between atoms: _522  and  _523
REMARK  212  A    between atoms: _528  and  _530
REMARK  213  A    between atoms: _530  and  _531
REMARK  214  A    between atoms: _530  and  _533
REMARK  215  A    between atoms: _533  and  _534
REMARK  216  A    between atoms: _537  and  _539
REMARK  217  A    between atoms: _539  and  _540
REMARK  218  A    between atoms: _539  and  _542
REMARK  219  A    between atoms: _542  and  _543
REMARK  220  A    between atoms: _546  and  _548
REMARK  221  A    between atoms: _548  and  _549
REMARK  222  A    between atoms: _551  and  _553
REMARK  223  A    between atoms: _553  and  _554
REMARK  224  A    between atoms: _553  and  _556
REMARK  225  A    between atoms: _556  and  _557
REMARK  226  A    between atoms: _557  and  _558
REMARK  227  A    between atoms: _558  and  _559
REMARK  228  A    between atoms: _568  and  _570
REMARK  229  A    between atoms: _570  and  _571
REMARK  230  A    between atoms: _570  and  _573
REMARK  231  A    between atoms: _573  and  _574
REMARK                            x       y       z     vdW  Elec       q    Type
REMARK                         _______ _______ _______ _____ _____    ______ ____
ROOT
ATOM      1  CB  GLN A   1      14.766  -2.297  17.571  0.00  0.00    +0.035 C 
ENDROOT
BRANCH   1   2
ATOM      2  CA  GLN A   1      14.705  -3.800  17.339  0.00  0.00    +0.134 C 
BRANCH   2   3
ATOM      3  N   GLN A   1      13.369  -4.248  17.050  0.00  0.00    -0.239 NA
ATOM      4  H   GLN A   1      12.565  -3.817  17.550  0.00  0.00    +0.142 HD
ENDBRANCH   2   3
BRANCH   2   5
ATOM      5  C   GLN A   1      15.302  -4.543  18.520  0.00  0.00    +0.224 C 
ATOM      6  O   GLN A   1      14.780  -4.498  19.648  0.00  0.00    -0.287 OA
ENDBRANCH   2   5
ENDBRANCH   1   2
BRANCH   1   7
ATOM      7  CG  GLN A   1      16.204  -1.859  17.745  0.00  0.00    +0.087 C 
BRANCH   7   8
ATOM      8  CD  GLN A   1      16.380  -0.422  18.098  0.00  0.00    +0.219 C 
ATOM      9  OE1 GLN A   1      17.176  -0.104  18.990  0.00  0.00    -0.275 OA
ATOM     10  NE2 GLN A   1      15.667   0.462  17.406  0.00  0.00    -0.329 N 
ATOM     11 HE21 GLN A   1      15.764   1.478  17.605  0.00  0.00    +0.145 HD
ATOM     12 HE22 GLN A   1      15.012   0.137  16.666  0.00  0.00    +0.145 HD
ENDBRANCH   7   8
ENDBRANCH   1   7
TORSDOF 5
REMARK  Name = ../refined-set-2016/2p3a/2p3a_pocket.pdb
REMARK  231 active torsions:
REMARK  status: ('A' for Active; 'I' for Inactive)
REMARK    1  A    between atoms: _1  and  _3
REMARK    2  A    between atoms: _3  and  _4
REMARK    3  A    between atoms: _3  and  _6
REMARK    4  A    between atoms: _6  and  _7
REMARK    5  A    between atoms: _7  and  _8
REMARK    6  A    between atoms: _8  and  _9
REMARK    7  A    between atoms: _18  and  _20
REMARK    8  A    between atoms: _20  and  _21
REMARK    9  A    between atoms: _20  and  _23
REMARK   10  A    between atoms: _23  and  _24
REMARK   11  A    between atoms: _27  and  _29
REMARK   12  A    between atoms: _29  and  _30
REMARK   13  A    between atoms: _29  and  _32
REMARK   14  A    between atoms: _32  and  _33
REMARK   15  A    between atoms: _36  and  _38
REMARK   16  A    between atoms: _38  and  _39
REMARK   17  A    between atoms: _38  and  _41
REMARK   18  A    between atoms: _41  and  _42
REMARK   19  A    between atoms: _45  and  _47
REMARK   20  A    between atoms: _47  and  _48
REMARK   21  A    between atoms: _47  and  _50
REMARK   22  A    between atoms: _50  and  _51
REMARK   23  A    between atoms: _54  and  _56
REMARK   24  A    between atoms: _56  and  _57
REMARK   25  A    between atoms: _59  and  _61
REMARK   26  A    between atoms: _61  and  _62
REMARK   27  A    between atoms: _65  and  _67
REMARK   28  A    between atoms: _67  and  _68
REMARK   29  A    between atoms: _67  and  _70
REMARK   30  A    between atoms: _70  and  _71
REMARK   31  A    between atoms: _74  and  _76
REMARK   32  A    between atoms: _76  and  _77
REMARK   33  A    between atoms: _76  and  _79
REMARK   34  A    between atoms: _79  and  _80
REMARK   35  A    between atoms: _83  and  _85
REMARK   36  A    between atoms: _85  and  _86
REMARK   37  A    between atoms: _85  and  _88
REMARK   38  A    between atoms: _88  and  _89
REMARK   39  A    between atoms: _92  and  _94
REMARK   40  A    between atoms: _94  and  _95
REMARK   41  A    between atoms: _94  and  _97
REMARK   42  A    between atoms: _100  and  _102
REMARK   43  A    between atoms: _102  and  _103
REMARK   44  A    between atoms: _102  and  _105
REMARK   45  A    between atoms: _105  and  _106
REMARK   46  A    between atoms: _106  and  _107
REMARK   47  A    between atoms: _107  and  _108
REMARK   48  A    between atoms: _117  and  _119
REMARK   49  A    between atoms: _119  and  _120
REMARK   50  A    between atoms: _119  and  _122
REMARK   51  A    between atoms: _122  and  _123
REMARK   52  A    between atoms: _123  and  _124
REMARK   53  A    between atoms: _126  and  _128
REMARK   54  A    between atoms: _128  and  _129
REMARK   55  A    between atoms: _128  and  _131
REMARK   56  A    between atoms: _131  and  _132
REMARK   57  A    between atoms: _135  and  _137
REMARK   58  A    between atoms: _137  and  _138
REMARK   59  A    between atoms: _140  and  _142
REMARK   60  A    between atoms: _142  and  _143
REMARK   61  A    between atoms: _145  and  _147
REMARK   62  A    between atoms: _147  and  _148
REMARK   63  A    between atoms: _147  and  _150
REMARK   64  A    between atoms: _150  and  _151
REMARK   65  A    between atoms: _154  and  _156
REMARK   66  A    between atoms: _156  and  _157
REMARK   67  A    between atoms: _159  and  _161
REMARK   68  A    between atoms: _161  and  _162
REMARK   69  A    between atoms: _164  and  _166
REMARK   70  A    between atoms: _166  and  _167
REMARK   71  A    between atoms: _166  and  _169
REMARK   72  A    between atoms: _169  and  _170
REMARK   73  A    between atoms: _176  and  _178
REMARK   74  A    between atoms: _178  and  _179
REMARK   75  A    between atoms: _178  and  _181
REMARK   76  A    between atoms: _184  and  _186
REMARK   77  A    between atoms: _186  and  _187
REMARK   78  A    between atoms: _186  and  _189
REMARK   79  A    between atoms: _192  and  _194
REMARK   80  A    between atoms: _194  and  _195
REMARK   81  A    between atoms: _194  and  _197
REMARK   82  A    between atoms: _197  and  _198
REMARK   83  A    between atoms: _198  and  _199
REMARK   84  A    between atoms: _204  and  _206
REMARK   85  A    between atoms: _206  and  _207
REMARK   86  A    between atoms: _206  and  _209
REMARK   87  A    between atoms: _209  and  _210
REMARK   88  A    between atoms: _213  and  _215
REMARK   89  A    between atoms: _215  and  _216
REMARK   90  A    between atoms: _215  and  _218
REMARK   91  A    between atoms: _218  and  _219
REMARK   92  A    between atoms: _223  and  _224
REMARK   93  A    between atoms: _229  and  _231
REMARK   94  A    between atoms: _231  and  _232
REMARK   95  A    between atoms: _235  and  _237
REMARK   96  A    between atoms: _237  and  _238
REMARK   97  A    between atoms: _237  and  _240
REMARK   98  A    between atoms: _240  and  _241
REMARK   99  A    between atoms: _246  and  _248
REMARK  100  A    between atoms: _248  and  _249
REMARK  101  A    between atoms: _248  and  _251
REMARK  102  A    between atoms: _251  and  _252
REMARK  103  A    between atoms: _255  and  _257
REMARK  104  A    between atoms: _257  and  _258
REMARK  105  A    between atoms: _257  and  _260
REMARK  106  A    between atoms: _260  and  _261
REMARK  107  A    between atoms: _264  and  _266
REMARK  108  A    between atoms: _266  and  _267
REMARK  109  A    between atoms: _269  and  _271
REMARK  110  A    between atoms: _271  and  _272
REMARK  111  A    between atoms: _271  and  _274
REMARK  112  A    between atoms: _274  and  _275
REMARK  113  A    between atoms: _275  and  _276
REMARK  114  A    between atoms: _276  and  _277
REMARK  115  A    between atoms: _286  and  _288
REMARK  116  A    between atoms: _288  and  _289
REMARK  117  A    between atoms: _288  and  _291
REMARK  118  A    between atoms: _291  and  _292
REMARK  119  A    between atoms: _292  and  _293
REMARK  120  A    between atoms: _293  and  _294
REMARK  121  A    between atoms: _303  and  _305
REMARK  122  A    between atoms: _305  and  _306
REMARK  123  A    between atoms: _305  and  _308
REMARK  124  A    between atoms: _308  and  _309
REMARK  125  A    between atoms: _312  and  _314
REMARK  126  A    between atoms: _314  and  _315
REMARK  127  A    between atoms: _314  and  _317
REMARK  128  A    between atoms: _317  and  _318
REMARK  129  A    between atoms: _321  and  _323
REMARK  130  A    between atoms: _323  and  _324
REMARK  131  A    between atoms: _323  and  _326
REMARK  132  A    between atoms: _326  and  _327
REMARK  133  A    between atoms: _330  and  _332
REMARK  134  A    between atoms: _332  and  _333
REMARK  135  A    between atoms: _332  and  _335
REMARK  136  A    between atoms: _335  and  _336
REMARK  137  A    between atoms: _339  and  _341
REMARK  138  A    between atoms: _341  and  _342
REMARK  139  A    between atoms: _344  and  _346
REMARK  140  A    between atoms: _346  and  _347
REMARK  141  A    between atoms: _350  and  _352
REMARK  142  A    between atoms: _352  and  _353
REMARK  143  A    between atoms: _352  and  _355
REMARK  144  A    between atoms: _355  and  _356
REMARK  145  A    between atoms: _359  and  _361
REMARK  146  A    between atoms: _361  and  _362
REMARK  147  A    between atoms: _361  and  _364
REMARK  148  A    between atoms: _364  and  _365
REMARK  149  A    between atoms: _368  and  _370
REMARK  150  A    between atoms: _370  and  _371
REMARK  151  A    between atoms: _370  and  _373
REMARK  152  A    between atoms: _373  and  _374
REMARK  153  A    between atoms: _377  and  _379
REMARK  154  A    between atoms: _379  and  _380
REMARK  155  A    between atoms: _379  and  _382
REMARK  156  A    between atoms: _385  and  _387
REMARK  157  A    between atoms: _387  and  _388
REMARK  158  A    between atoms: _387  and  _390
REMARK  159  A    between atoms: _390  and  _391
REMARK  160  A    between atoms: _394  and  _396
REMARK  161  A    between atoms: _396  and  _397
REMARK  162  A    between atoms: _396  and  _399
REMARK  163  A    between atoms: _399  and  _400
REMARK  164  A    between atoms: _400  and  _401
REMARK  165  A    between atoms: _401  and  _402
REMARK  166  A    between atoms: _411  and  _413
REMARK  167  A    between atoms: _413  and  _414
REMARK  168  A    between atoms: _413  and  _416
REMARK  169  A    between atoms: _416  and  _417
REMARK  170  A    between atoms: _417  and  _418
REMARK  171  A    between atoms: _420  and  _422
REMARK  172  A    between atoms: _422  and  _423
REMARK  173  A    between atoms: _422  and  _425
REMARK  174  A    between atoms: _425  and  _426
REMARK  175  A    between atoms: _429  and  _431
REMARK  176  A    between atoms: _431  and  _432
REMARK  177  A    between atoms: _434  and  _436
REMARK  178  A    between atoms: _436  and  _437
REMARK  179  A    between atoms: _439  and  _441
REMARK  180  A    between atoms: _441  and  _442
REMARK  181  A    between atoms: _441  and  _444
REMARK  182  A    between atoms: _444  and  _445
REMARK  183  A    between atoms: _448  and  _450
REMARK  184  A    between atoms: _450  and  _451
REMARK  185  A    between atoms: _453  and  _455
REMARK  186  A    between atoms: _455  and  _456
REMARK  187  A    between atoms: _458  and  _460
REMARK  188  A    between atoms: _460  and  _461
REMARK  189  A    between atoms: _460  and  _463
REMARK  190  A    between atoms: _463  and  _464
REMARK  191  A    between atoms: _470  and  _472
REMARK  192  A    between atoms: _472  and  _473
REMARK  193  A    between atoms: _472  and  _475
REMARK  194  A    between atoms: _478  and  _480
REMARK  195  A    between atoms: _480  and  _481
REMARK  196  A    between atoms: _480  and  _483
REMARK  197  A    between atoms: _486  and  _488
REMARK  198  A    between atoms: _488  and  _489
REMARK  199  A    between atoms: _488  and  _491
REMARK  200  A    between atoms: _491  and  _492
REMARK  201  A    between atoms: _495  and  _497
REMARK  202  A    between atoms: _497  and  _498
REMARK  203  A    between atoms: _497  and  _500
REMARK  204  A    between atoms: _500  and  _501
REMARK  205  A    between atoms: _505  and  _506
REMARK  206  A    between atoms: _511  and  _513
REMARK  207  A    between atoms: _513  and  _514
REMARK  208  A    between atoms: _517  and  _519
REMARK  209  A    between atoms: _519  and  _520
REMARK  210  A    between atoms: _519  and  _522
REMARK  211  A    between atoms: _522  and  _523
REMARK  212  A    between atoms: _528  and  _530
REMARK  213  A    between atoms: _530  and  _531
REMARK  214  A    between atoms: _530  and  _533
REMARK  215  A    between atoms: _533  and  _534
REMARK  216  A    between atoms: _537  and  _539
REMARK  217  A    between atoms: _539  and  _540
REMARK  218  A    between atoms: _539  and  _542
REMARK  219  A    between atoms: _542  and  _543
REMARK  220  A    between atoms: _546  and  _548
REMARK  221  A    between atoms: _548  and  _549
REMARK  222  A    between atoms: _551  and  _553
REMARK  223  A    between atoms: _553  and  _554
REMARK  224  A    between atoms: _553  and  _556
REMARK  225  A    between atoms: _556  and  _557
REMARK  226  A    between atoms: _557  and  _558
REMARK  227  A    between atoms: _558  and  _559
REMARK  228  A    between atoms: _568  and  _570
REMARK  229  A    between atoms: _570  and  _571
REMARK  230  A    between atoms: _570  and  _573
REMARK  231  A    between atoms: _573  and  _574
REMARK                            x       y       z     vdW  Elec       q    Type
REMARK                         _______ _______ _______ _____ _____    ______ ____
ROOT
ATOM      1  CA  LEU A   1      16.328  -5.176  13.243  0.00  0.00    +0.133 C 
ENDROOT
BRANCH   1   2
ATOM      2  N   LEU A   1      17.745  -5.254  13.494  0.00  0.00    -0.239 NA
ATOM      3  H   LEU A   1      18.402  -5.052  12.714  0.00  0.00    +0.142 HD
ENDBRANCH   1   2
BRANCH   1   4
ATOM      4  C   LEU A   1      15.841  -6.465  12.586  0.00  0.00    +0.224 C 
ATOM      5  O   LEU A   1      16.485  -7.028  11.685  0.00  0.00    -0.287 OA
ENDBRANCH   1   4
BRANCH   1   6
ATOM      6  CB  LEU A   1      15.994  -3.960  12.384  0.00  0.00    +0.025 C 
BRANCH   6   7
ATOM      7  CG  LEU A   1      16.602  -2.618  12.822  0.00  0.00    +0.002 C 
ATOM      8  CD2 LEU A   1      16.288  -2.262  14.280  0.00  0.00    +0.000 C 
ATOM      9  CD1 LEU A   1      16.133  -1.491  11.905  0.00  0.00    +0.000 C 
ENDBRANCH   6   7
ENDBRANCH   1   6
TORSDOF 4
REMARK  Name = ../refined-set-2016/2p3a/2p3a_pocket.pdb
REMARK  231 active torsions:
REMARK  status: ('A' for Active; 'I' for Inactive)
REMARK    1  A    between atoms: _1  and  _3
REMARK    2  A    between atoms: _3  and  _4
REMARK    3  A    between atoms: _3  and  _6
REMARK    4  A    between atoms: _6  and  _7
REMARK    5  A    between atoms: _7  and  _8
REMARK    6  A    between atoms: _8  and  _9
REMARK    7  A    between atoms: _18  and  _20
REMARK    8  A    between atoms: _20  and  _21
REMARK    9  A    between atoms: _20  and  _23
REMARK   10  A    between atoms: _23  and  _24
REMARK   11  A    between atoms: _27  and  _29
REMARK   12  A    between atoms: _29  and  _30
REMARK   13  A    between atoms: _29  and  _32
REMARK   14  A    between atoms: _32  and  _33
REMARK   15  A    between atoms: _36  and  _38
REMARK   16  A    between atoms: _38  and  _39
REMARK   17  A    between atoms: _38  and  _41
REMARK   18  A    between atoms: _41  and  _42
REMARK   19  A    between atoms: _45  and  _47
REMARK   20  A    between atoms: _47  and  _48
REMARK   21  A    between atoms: _47  and  _50
REMARK   22  A    between atoms: _50  and  _51
REMARK   23  A    between atoms: _54  and  _56
REMARK   24  A    between atoms: _56  and  _57
REMARK   25  A    between atoms: _59  and  _61
REMARK   26  A    between atoms: _61  and  _62
REMARK   27  A    between atoms: _65  and  _67
REMARK   28  A    between atoms: _67  and  _68
REMARK   29  A    between atoms: _67  and  _70
REMARK   30  A    between atoms: _70  and  _71
REMARK   31  A    between atoms: _74  and  _76
REMARK   32  A    between atoms: _76  and  _77
REMARK   33  A    between atoms: _76  and  _79
REMARK   34  A    between atoms: _79  and  _80
REMARK   35  A    between atoms: _83  and  _85
REMARK   36  A    between atoms: _85  and  _86
REMARK   37  A    between atoms: _85  and  _88
REMARK   38  A    between atoms: _88  and  _89
REMARK   39  A    between atoms: _92  and  _94
REMARK   40  A    between atoms: _94  and  _95
REMARK   41  A    between atoms: _94  and  _97
REMARK   42  A    between atoms: _100  and  _102
REMARK   43  A    between atoms: _102  and  _103
REMARK   44  A    between atoms: _102  and  _105
REMARK   45  A    between atoms: _105  and  _106
REMARK   46  A    between atoms: _106  and  _107
REMARK   47  A    between atoms: _107  and  _108
REMARK   48  A    between atoms: _117  and  _119
REMARK   49  A    between atoms: _119  and  _120
REMARK   50  A    between atoms: _119  and  _122
REMARK   51  A    between atoms: _122  and  _123
REMARK   52  A    between atoms: _123  and  _124
REMARK   53  A    between atoms: _126  and  _128
REMARK   54  A    between atoms: _128  and  _129
REMARK   55  A    between atoms: _128  and  _131
REMARK   56  A    between atoms: _131  and  _132
REMARK   57  A    between atoms: _135  and  _137
REMARK   58  A    between atoms: _137  and  _138
REMARK   59  A    between atoms: _140  and  _142
REMARK   60  A    between atoms: _142  and  _143
REMARK   61  A    between atoms: _145  and  _147
REMARK   62  A    between atoms: _147  and  _148
REMARK   63  A    between atoms: _147  and  _150
REMARK   64  A    between atoms: _150  and  _151
REMARK   65  A    between atoms: _154  and  _156
REMARK   66  A    between atoms: _156  and  _157
REMARK   67  A    between atoms: _159  and  _161
REMARK   68  A    between atoms: _161  and  _162
REMARK   69  A    between atoms: _164  and  _166
REMARK   70  A    between atoms: _166  and  _167
REMARK   71  A    between atoms: _166  and  _169
REMARK   72  A    between atoms: _169  and  _170
REMARK   73  A    between atoms: _176  and  _178
REMARK   74  A    between atoms: _178  and  _179
REMARK   75  A    between atoms: _178  and  _181
REMARK   76  A    between atoms: _184  and  _186
REMARK   77  A    between atoms: _186  and  _187
REMARK   78  A    between atoms: _186  and  _189
REMARK   79  A    between atoms: _192  and  _194
REMARK   80  A    between atoms: _194  and  _195
REMARK   81  A    between atoms: _194  and  _197
REMARK   82  A    between atoms: _197  and  _198
REMARK   83  A    between atoms: _198  and  _199
REMARK   84  A    between atoms: _204  and  _206
REMARK   85  A    between atoms: _206  and  _207
REMARK   86  A    between atoms: _206  and  _209
REMARK   87  A    between atoms: _209  and  _210
REMARK   88  A    between atoms: _213  and  _215
REMARK   89  A    between atoms: _215  and  _216
REMARK   90  A    between atoms: _215  and  _218
REMARK   91  A    between atoms: _218  and  _219
REMARK   92  A    between atoms: _223  and  _224
REMARK   93  A    between atoms: _229  and  _231
REMARK   94  A    between atoms: _231  and  _232
REMARK   95  A    between atoms: _235  and  _237
REMARK   96  A    between atoms: _237  and  _238
REMARK   97  A    between atoms: _237  and  _240
REMARK   98  A    between atoms: _240  and  _241
REMARK   99  A    between atoms: _246  and  _248
REMARK  100  A    between atoms: _248  and  _249
REMARK  101  A    between atoms: _248  and  _251
REMARK  102  A    between atoms: _251  and  _252
REMARK  103  A    between atoms: _255  and  _257
REMARK  104  A    between atoms: _257  and  _258
REMARK  105  A    between atoms: _257  and  _260
REMARK  106  A    between atoms: _260  and  _261
REMARK  107  A    between atoms: _264  and  _266
REMARK  108  A    between atoms: _266  and  _267
REMARK  109  A    between atoms: _269  and  _271
REMARK  110  A    between atoms: _271  and  _272
REMARK  111  A    between atoms: _271  and  _274
REMARK  112  A    between atoms: _274  and  _275
REMARK  113  A    between atoms: _275  and  _276
REMARK  114  A    between atoms: _276  and  _277
REMARK  115  A    between atoms: _286  and  _288
REMARK  116  A    between atoms: _288  and  _289
REMARK  117  A    between atoms: _288  and  _291
REMARK  118  A    between atoms: _291  and  _292
REMARK  119  A    between atoms: _292  and  _293
REMARK  120  A    between atoms: _293  and  _294
REMARK  121  A    between atoms: _303  and  _305
REMARK  122  A    between atoms: _305  and  _306
REMARK  123  A    between atoms: _305  and  _308
REMARK  124  A    between atoms: _308  and  _309
REMARK  125  A    between atoms: _312  and  _314
REMARK  126  A    between atoms: _314  and  _315
REMARK  127  A    between atoms: _314  and  _317
REMARK  128  A    between atoms: _317  and  _318
REMARK  129  A    between atoms: _321  and  _323
REMARK  130  A    between atoms: _323  and  _324
REMARK  131  A    between atoms: _323  and  _326
REMARK  132  A    between atoms: _326  and  _327
REMARK  133  A    between atoms: _330  and  _332
REMARK  134  A    between atoms: _332  and  _333
REMARK  135  A    between atoms: _332  and  _335
REMARK  136  A    between atoms: _335  and  _336
REMARK  137  A    between atoms: _339  and  _341
REMARK  138  A    between atoms: _341  and  _342
REMARK  139  A    between atoms: _344  and  _346
REMARK  140  A    between atoms: _346  and  _347
REMARK  141  A    between atoms: _350  and  _352
REMARK  142  A    between atoms: _352  and  _353
REMARK  143  A    between atoms: _352  and  _355
REMARK  144  A    between atoms: _355  and  _356
REMARK  145  A    between atoms: _359  and  _361
REMARK  146  A    between atoms: _361  and  _362
REMARK  147  A    between atoms: _361  and  _364
REMARK  148  A    between atoms: _364  and  _365
REMARK  149  A    between atoms: _368  and  _370
REMARK  150  A    between atoms: _370  and  _371
REMARK  151  A    between atoms: _370  and  _373
REMARK  152  A    between atoms: _373  and  _374
REMARK  153  A    between atoms: _377  and  _379
REMARK  154  A    between atoms: _379  and  _380
REMARK  155  A    between atoms: _379  and  _382
REMARK  156  A    between atoms: _385  and  _387
REMARK  157  A    between atoms: _387  and  _388
REMARK  158  A    between atoms: _387  and  _390
REMARK  159  A    between atoms: _390  and  _391
REMARK  160  A    between atoms: _394  and  _396
REMARK  161  A    between atoms: _396  and  _397
REMARK  162  A    between atoms: _396  and  _399
REMARK  163  A    between atoms: _399  and  _400
REMARK  164  A    between atoms: _400  and  _401
REMARK  165  A    between atoms: _401  and  _402
REMARK  166  A    between atoms: _411  and  _413
REMARK  167  A    between atoms: _413  and  _414
REMARK  168  A    between atoms: _413  and  _416
REMARK  169  A    between atoms: _416  and  _417
REMARK  170  A    between atoms: _417  and  _418
REMARK  171  A    between atoms: _420  and  _422
REMARK  172  A    between atoms: _422  and  _423
REMARK  173  A    between atoms: _422  and  _425
REMARK  174  A    between atoms: _425  and  _426
REMARK  175  A    between atoms: _429  and  _431
REMARK  176  A    between atoms: _431  and  _432
REMARK  177  A    between atoms: _434  and  _436
REMARK  178  A    between atoms: _436  and  _437
REMARK  179  A    between atoms: _439  and  _441
REMARK  180  A    between atoms: _441  and  _442
REMARK  181  A    between atoms: _441  and  _444
REMARK  182  A    between atoms: _444  and  _445
REMARK  183  A    between atoms: _448  and  _450
REMARK  184  A    between atoms: _450  and  _451
REMARK  185  A    between atoms: _453  and  _455
REMARK  186  A    between atoms: _455  and  _456
REMARK  187  A    between atoms: _458  and  _460
REMARK  188  A    between atoms: _460  and  _461
REMARK  189  A    between atoms: _460  and  _463
REMARK  190  A    between atoms: _463  and  _464
REMARK  191  A    between atoms: _470  and  _472
REMARK  192  A    between atoms: _472  and  _473
REMARK  193  A    between atoms: _472  and  _475
REMARK  194  A    between atoms: _478  and  _480
REMARK  195  A    between atoms: _480  and  _481
REMARK  196  A    between atoms: _480  and  _483
REMARK  197  A    between atoms: _486  and  _488
REMARK  198  A    between atoms: _488  and  _489
REMARK  199  A    between atoms: _488  and  _491
REMARK  200  A    between atoms: _491  and  _492
REMARK  201  A    between atoms: _495  and  _497
REMARK  202  A    between atoms: _497  and  _498
REMARK  203  A    between atoms: _497  and  _500
REMARK  204  A    between atoms: _500  and  _501
REMARK  205  A    between atoms: _505  and  _506
REMARK  206  A    between atoms: _511  and  _513
REMARK  207  A    between atoms: _513  and  _514
REMARK  208  A    between atoms: _517  and  _519
REMARK  209  A    between atoms: _519  and  _520
REMARK  210  A    between atoms: _519  and  _522
REMARK  211  A    between atoms: _522  and  _523
REMARK  212  A    between atoms: _528  and  _530
REMARK  213  A    between atoms: _530  and  _531
REMARK  214  A    between atoms: _530  and  _533
REMARK  215  A    between atoms: _533  and  _534
REMARK  216  A    between atoms: _537  and  _539
REMARK  217  A    between atoms: _539  and  _540
REMARK  218  A    between atoms: _539  and  _542
REMARK  219  A    between atoms: _542  and  _543
REMARK  220  A    between atoms: _546  and  _548
REMARK  221  A    between atoms: _548  and  _549
REMARK  222  A    between atoms: _551  and  _553
REMARK  223  A    between atoms: _553  and  _554
REMARK  224  A    between atoms: _553  and  _556
REMARK  225  A    between atoms: _556  and  _557
REMARK  226  A    between atoms: _557  and  _558
REMARK  227  A    between atoms: _558  and  _559
REMARK  228  A    between atoms: _568  and  _570
REMARK  229  A    between atoms: _570  and  _571
REMARK  230  A    between atoms: _570  and  _573
REMARK  231  A    between atoms: _573  and  _574
REMARK                            x       y       z     vdW  Elec       q    Type
REMARK                         _______ _______ _______ _____ _____    ______ ____
ROOT
ATOM      1  CA  ILE A   5      21.041  -6.405   5.244  0.00  0.00    +0.149 C 
ENDROOT
BRANCH   1   3
ATOM      2  C   ASN A   4      20.336  -8.677   4.841  0.00  0.00    +0.241 C 
ATOM      3  N   ILE A   5      20.294  -7.594   5.603  0.00  0.00    -0.297 N 
ATOM      4  H   ILE A   5      19.718  -7.597   6.469  0.00  0.00    +0.150 HD
ATOM      5  O   ASN A   4      21.082  -8.811   3.871  0.00  0.00    -0.273 OA
BRANCH   2   6
ATOM      6  CA  ASN A   4      19.391  -9.773   5.231  0.00  0.00    +0.158 C 
BRANCH   6   9
ATOM      7  C   ALA A   3      17.726  -9.347   3.557  0.00  0.00    +0.241 C 
ATOM      8  O   ALA A   3      17.306  -8.391   4.177  0.00  0.00    -0.273 OA
ATOM      9  N   ASN A   4      18.678 -10.138   4.046  0.00  0.00    -0.297 N 
ATOM     10  H   ASN A   4      18.906 -11.030   3.562  0.00  0.00    +0.150 HD
BRANCH   7  11
ATOM     11  CA  ALA A   3      17.186  -9.682   2.194  0.00  0.00    +0.149 C 
ATOM     12  CB  ALA A   3      17.920  -8.853   1.114  0.00  0.00    +0.031 C 
BRANCH  11  14
ATOM     13  C   PRO A   2      14.940  -9.994   1.353  0.00  0.00    +0.241 C 
ATOM     14  N   ALA A   3      15.777  -9.369   2.168  0.00  0.00    -0.297 N 
ATOM     15  H   ALA A   3      15.409  -8.634   2.805  0.00  0.00    +0.150 HD
ATOM     16  O   PRO A   2      15.313 -10.852   0.580  0.00  0.00    -0.273 OA
BRANCH  13  23
ATOM     17  C   THR A   1      13.028  -8.882   3.717  0.00  0.00    +0.244 C 
ATOM     18  O   THR A   1      13.083 -10.059   4.127  0.00  0.00    -0.273 OA
ATOM     19  N   PRO A   2      13.217  -8.546   2.448  0.00  0.00    -0.272 N 
ATOM     20  CD  PRO A   2      13.180  -7.181   1.885  0.00  0.00    +0.094 C 
ATOM     21  CG  PRO A   2      13.363  -7.423   0.384  0.00  0.00    +0.024 C 
ATOM     22  CB  PRO A   2      13.047  -8.871   0.140  0.00  0.00    +0.031 C 
ATOM     23  CA  PRO A   2      13.468  -9.565   1.421  0.00  0.00    +0.152 C 
BRANCH  17  24
ATOM     24  CA  THR A   1      12.748  -7.748   4.681  0.00  0.00    +0.172 C 
BRANCH  24  25
ATOM     25  N   THR A   1      11.880  -8.274   5.721  0.00  0.00    -0.236 NA
ATOM     26  H   THR A   1      12.299  -8.684   6.580  0.00  0.00    +0.142 HD
ENDBRANCH  24  25
BRANCH  24  27
ATOM     27  CB  THR A   1      14.071  -7.229   5.321  0.00  0.00    +0.135 C 
ATOM     28  CG2 THR A   1      14.747  -8.330   6.107  0.00  0.00    +0.034 C 
BRANCH  27  29
ATOM     29  OG1 THR A   1      15.025  -6.970   4.298  0.00  0.00    -0.383 OA
ATOM     30  HG1 THR A   1      15.206  -7.805   3.798  0.00  0.00    +0.210 HD
ENDBRANCH  27  29
ENDBRANCH  24  27
ENDBRANCH  17  24
ENDBRANCH  13  23
ENDBRANCH  11  14
ENDBRANCH   7  11
ENDBRANCH   6   9
BRANCH   6  31
ATOM     31  CB  ASN A   4      20.193 -10.963   5.722  0.00  0.00    +0.114 C 
BRANCH  31  32
ATOM     32  CG  ASN A   4      19.299 -12.076   6.155  0.00  0.00    +0.222 C 
ATOM     33  OD1 ASN A   4      18.325 -11.812   6.851  0.00  0.00    -0.275 OA
ATOM     34  ND2 ASN A   4      19.577 -13.300   5.731  0.00  0.00    -0.329 N 
ATOM     35 HD21 ASN A   4      18.955 -14.093   5.987  0.00  0.00    +0.145 HD
ATOM     36 HD22 ASN A   4      20.418 -13.468   5.142  0.00  0.00    +0.145 HD
ENDBRANCH  31  32
ENDBRANCH   6  31
ENDBRANCH   2   6
ENDBRANCH   1   3
BRANCH   1  37
ATOM     37  C   ILE A   5      21.910  -6.001   6.410  0.00  0.00    +0.241 C 
ATOM     38  O   ILE A   5      21.423  -5.827   7.549  0.00  0.00    -0.273 OA
ATOM     39  N   ILE A   6      23.204  -5.904   6.136  0.00  0.00    -0.297 N 
ATOM     40  H   ILE A   6      23.559  -6.189   5.201  0.00  0.00    +0.150 HD
BRANCH  39  41
ATOM     41  CA  ILE A   6      24.129  -5.400   7.141  0.00  0.00    +0.149 C 
BRANCH  41  42
ATOM     42  C   ILE A   6      24.325  -3.938   6.890  0.00  0.00    +0.241 C 
ATOM     43  N   GLY A   7      23.897  -3.125   7.832  0.00  0.00    -0.295 N 
ATOM     44  H   GLY A   7      23.517  -3.509   8.721  0.00  0.00    +0.150 HD
ATOM     45  O   ILE A   6      24.853  -3.543   5.846  0.00  0.00    -0.273 OA
BRANCH  43  46
ATOM     46  CA  GLY A   7      23.957  -1.697   7.626  0.00  0.00    +0.176 C 
BRANCH  46  47
ATOM     47  C   GLY A   7      25.182  -1.080   8.229  0.00  0.00    +0.243 C 
ATOM     48  O   GLY A   7      26.084  -1.776   8.719  0.00  0.00    -0.273 OA
ATOM     49  N   ARG A   8      25.256   0.238   8.121  0.00  0.00    -0.298 N 
ATOM     50  H   ARG A   8      24.444   0.766   7.742  0.00  0.00    +0.150 HD
BRANCH  49  51
ATOM     51  CA  ARG A   8      26.443   0.955   8.519  0.00  0.00    +0.137 C 
BRANCH  51  52
ATOM     52  C   ARG A   8      26.693   0.806   9.981  0.00  0.00    +0.227 C 
ATOM     53  O   ARG A   8      27.839   0.836  10.403  0.00  0.00    -0.286 OA
ENDBRANCH  51  52
BRANCH  51  54
ATOM     54  CB  ARG A   8      26.345   2.429   8.135  0.00  0.00    +0.031 C 
BRANCH  54  55
ATOM     55  CG  ARG A   8      26.335   2.691   6.621  0.00  0.00    +0.045 C 
BRANCH  55  56
ATOM     56  CD  ARG A   8      26.371   4.207   6.322  0.00  0.00    +0.174 C 
BRANCH  56  57
ATOM     57  NE  ARG A   8      25.117   4.835   6.777  0.00  0.00    -0.265 N 
ATOM     58  CZ  ARG A   8      24.962   5.489   7.936  0.00  0.00    +0.342 C 
ATOM     59  NH2 ARG A   8      25.976   5.630   8.793  0.00  0.00    -0.292 N 
ATOM     60 HH21 ARG A   8      25.834   6.142   9.687  0.00  0.00    +0.255 HD
ATOM     61 HH22 ARG A   8      26.908   5.228   8.566  0.00  0.00    +0.255 HD
ATOM     62  NH1 ARG A   8      23.774   6.004   8.242  0.00  0.00    -0.292 N 
ATOM     63 HH11 ARG A   8      23.644   6.513   9.139  0.00  0.00    +0.255 HD
ATOM     64 HH12 ARG A   8      22.976   5.897   7.584  0.00  0.00    +0.255 HD
ATOM     65  HE  ARG A   8      24.290   4.765   6.151  0.00  0.00    +0.259 HD
ENDBRANCH  56  57
ENDBRANCH  55  56
ENDBRANCH  54  55
ENDBRANCH  51  54
ENDBRANCH  49  51
ENDBRANCH  46  47
ENDBRANCH  43  46
ENDBRANCH  41  42
BRANCH  41  66
ATOM     66  CB  ILE A   6      25.507  -6.088   7.058  0.00  0.00    +0.027 C 
ATOM     67  CG2 ILE A   6      26.409  -5.545   8.176  0.00  0.00    +0.002 C 
BRANCH  66  68
ATOM     68  CG1 ILE A   6      25.357  -7.618   7.159  0.00  0.00    +0.002 C 
ATOM     69  CD1 ILE A   6      24.522  -8.101   8.360  0.00  0.00    +0.000 C 
ENDBRANCH  66  68
ENDBRANCH  41  66
ENDBRANCH  39  41
ENDBRANCH   1  37
BRANCH   1  70
ATOM     70  CB  ILE A   5      20.081  -5.260   4.874  0.00  0.00    +0.027 C 
ATOM     71  CG2 ILE A   5      20.828  -3.926   4.894  0.00  0.00    +0.002 C 
BRANCH  70  72
ATOM     72  CG1 ILE A   5      19.465  -5.513   3.509  0.00  0.00    +0.002 C 
ATOM     73  CD1 ILE A   5      18.110  -4.937   3.405  0.00  0.00    +0.000 C 
ENDBRANCH  70  72
ENDBRANCH   1  70
TORSDOF 27
REMARK  Name = ../refined-set-2016/2p3a/2p3a_pocket.pdb
REMARK  231 active torsions:
REMARK  status: ('A' for Active; 'I' for Inactive)
REMARK    1  A    between atoms: _1  and  _3
REMARK    2  A    between atoms: _3  and  _4
REMARK    3  A    between atoms: _3  and  _6
REMARK    4  A    between atoms: _6  and  _7
REMARK    5  A    between atoms: _7  and  _8
REMARK    6  A    between atoms: _8  and  _9
REMARK    7  A    between atoms: _18  and  _20
REMARK    8  A    between atoms: _20  and  _21
REMARK    9  A    between atoms: _20  and  _23
REMARK   10  A    between atoms: _23  and  _24
REMARK   11  A    between atoms: _27  and  _29
REMARK   12  A    between atoms: _29  and  _30
REMARK   13  A    between atoms: _29  and  _32
REMARK   14  A    between atoms: _32  and  _33
REMARK   15  A    between atoms: _36  and  _38
REMARK   16  A    between atoms: _38  and  _39
REMARK   17  A    between atoms: _38  and  _41
REMARK   18  A    between atoms: _41  and  _42
REMARK   19  A    between atoms: _45  and  _47
REMARK   20  A    between atoms: _47  and  _48
REMARK   21  A    between atoms: _47  and  _50
REMARK   22  A    between atoms: _50  and  _51
REMARK   23  A    between atoms: _54  and  _56
REMARK   24  A    between atoms: _56  and  _57
REMARK   25  A    between atoms: _59  and  _61
REMARK   26  A    between atoms: _61  and  _62
REMARK   27  A    between atoms: _65  and  _67
REMARK   28  A    between atoms: _67  and  _68
REMARK   29  A    between atoms: _67  and  _70
REMARK   30  A    between atoms: _70  and  _71
REMARK   31  A    between atoms: _74  and  _76
REMARK   32  A    between atoms: _76  and  _77
REMARK   33  A    between atoms: _76  and  _79
REMARK   34  A    between atoms: _79  and  _80
REMARK   35  A    between atoms: _83  and  _85
REMARK   36  A    between atoms: _85  and  _86
REMARK   37  A    between atoms: _85  and  _88
REMARK   38  A    between atoms: _88  and  _89
REMARK   39  A    between atoms: _92  and  _94
REMARK   40  A    between atoms: _94  and  _95
REMARK   41  A    between atoms: _94  and  _97
REMARK   42  A    between atoms: _100  and  _102
REMARK   43  A    between atoms: _102  and  _103
REMARK   44  A    between atoms: _102  and  _105
REMARK   45  A    between atoms: _105  and  _106
REMARK   46  A    between atoms: _106  and  _107
REMARK   47  A    between atoms: _107  and  _108
REMARK   48  A    between atoms: _117  and  _119
REMARK   49  A    between atoms: _119  and  _120
REMARK   50  A    between atoms: _119  and  _122
REMARK   51  A    between atoms: _122  and  _123
REMARK   52  A    between atoms: _123  and  _124
REMARK   53  A    between atoms: _126  and  _128
REMARK   54  A    between atoms: _128  and  _129
REMARK   55  A    between atoms: _128  and  _131
REMARK   56  A    between atoms: _131  and  _132
REMARK   57  A    between atoms: _135  and  _137
REMARK   58  A    between atoms: _137  and  _138
REMARK   59  A    between atoms: _140  and  _142
REMARK   60  A    between atoms: _142  and  _143
REMARK   61  A    between atoms: _145  and  _147
REMARK   62  A    between atoms: _147  and  _148
REMARK   63  A    between atoms: _147  and  _150
REMARK   64  A    between atoms: _150  and  _151
REMARK   65  A    between atoms: _154  and  _156
REMARK   66  A    between atoms: _156  and  _157
REMARK   67  A    between atoms: _159  and  _161
REMARK   68  A    between atoms: _161  and  _162
REMARK   69  A    between atoms: _164  and  _166
REMARK   70  A    between atoms: _166  and  _167
REMARK   71  A    between atoms: _166  and  _169
REMARK   72  A    between atoms: _169  and  _170
REMARK   73  A    between atoms: _176  and  _178
REMARK   74  A    between atoms: _178  and  _179
REMARK   75  A    between atoms: _178  and  _181
REMARK   76  A    between atoms: _184  and  _186
REMARK   77  A    between atoms: _186  and  _187
REMARK   78  A    between atoms: _186  and  _189
REMARK   79  A    between atoms: _192  and  _194
REMARK   80  A    between atoms: _194  and  _195
REMARK   81  A    between atoms: _194  and  _197
REMARK   82  A    between atoms: _197  and  _198
REMARK   83  A    between atoms: _198  and  _199
REMARK   84  A    between atoms: _204  and  _206
REMARK   85  A    between atoms: _206  and  _207
REMARK   86  A    between atoms: _206  and  _209
REMARK   87  A    between atoms: _209  and  _210
REMARK   88  A    between atoms: _213  and  _215
REMARK   89  A    between atoms: _215  and  _216
REMARK   90  A    between atoms: _215  and  _218
REMARK   91  A    between atoms: _218  and  _219
REMARK   92  A    between atoms: _223  and  _224
REMARK   93  A    between atoms: _229  and  _231
REMARK   94  A    between atoms: _231  and  _232
REMARK   95  A    between atoms: _235  and  _237
REMARK   96  A    between atoms: _237  and  _238
REMARK   97  A    between atoms: _237  and  _240
REMARK   98  A    between atoms: _240  and  _241
REMARK   99  A    between atoms: _246  and  _248
REMARK  100  A    between atoms: _248  and  _249
REMARK  101  A    between atoms: _248  and  _251
REMARK  102  A    between atoms: _251  and  _252
REMARK  103  A    between atoms: _255  and  _257
REMARK  104  A    between atoms: _257  and  _258
REMARK  105  A    between atoms: _257  and  _260
REMARK  106  A    between atoms: _260  and  _261
REMARK  107  A    between atoms: _264  and  _266
REMARK  108  A    between atoms: _266  and  _267
REMARK  109  A    between atoms: _269  and  _271
REMARK  110  A    between atoms: _271  and  _272
REMARK  111  A    between atoms: _271  and  _274
REMARK  112  A    between atoms: _274  and  _275
REMARK  113  A    between atoms: _275  and  _276
REMARK  114  A    between atoms: _276  and  _277
REMARK  115  A    between atoms: _286  and  _288
REMARK  116  A    between atoms: _288  and  _289
REMARK  117  A    between atoms: _288  and  _291
REMARK  118  A    between atoms: _291  and  _292
REMARK  119  A    between atoms: _292  and  _293
REMARK  120  A    between atoms: _293  and  _294
REMARK  121  A    between atoms: _303  and  _305
REMARK  122  A    between atoms: _305  and  _306
REMARK  123  A    between atoms: _305  and  _308
REMARK  124  A    between atoms: _308  and  _309
REMARK  125  A    between atoms: _312  and  _314
REMARK  126  A    between atoms: _314  and  _315
REMARK  127  A    between atoms: _314  and  _317
REMARK  128  A    between atoms: _317  and  _318
REMARK  129  A    between atoms: _321  and  _323
REMARK  130  A    between atoms: _323  and  _324
REMARK  131  A    between atoms: _323  and  _326
REMARK  132  A    between atoms: _326  and  _327
REMARK  133  A    between atoms: _330  and  _332
REMARK  134  A    between atoms: _332  and  _333
REMARK  135  A    between atoms: _332  and  _335
REMARK  136  A    between atoms: _335  and  _336
REMARK  137  A    between atoms: _339  and  _341
REMARK  138  A    between atoms: _341  and  _342
REMARK  139  A    between atoms: _344  and  _346
REMARK  140  A    between atoms: _346  and  _347
REMARK  141  A    between atoms: _350  and  _352
REMARK  142  A    between atoms: _352  and  _353
REMARK  143  A    between atoms: _352  and  _355
REMARK  144  A    between atoms: _355  and  _356
REMARK  145  A    between atoms: _359  and  _361
REMARK  146  A    between atoms: _361  and  _362
REMARK  147  A    between atoms: _361  and  _364
REMARK  148  A    between atoms: _364  and  _365
REMARK  149  A    between atoms: _368  and  _370
REMARK  150  A    between atoms: _370  and  _371
REMARK  151  A    between atoms: _370  and  _373
REMARK  152  A    between atoms: _373  and  _374
REMARK  153  A    between atoms: _377  and  _379
REMARK  154  A    between atoms: _379  and  _380
REMARK  155  A    between atoms: _379  and  _382
REMARK  156  A    between atoms: _385  and  _387
REMARK  157  A    between atoms: _387  and  _388
REMARK  158  A    between atoms: _387  and  _390
REMARK  159  A    between atoms: _390  and  _391
REMARK  160  A    between atoms: _394  and  _396
REMARK  161  A    between atoms: _396  and  _397
REMARK  162  A    between atoms: _396  and  _399
REMARK  163  A    between atoms: _399  and  _400
REMARK  164  A    between atoms: _400  and  _401
REMARK  165  A    between atoms: _401  and  _402
REMARK  166  A    between atoms: _411  and  _413
REMARK  167  A    between atoms: _413  and  _414
REMARK  168  A    between atoms: _413  and  _416
REMARK  169  A    between atoms: _416  and  _417
REMARK  170  A    between atoms: _417  and  _418
REMARK  171  A    between atoms: _420  and  _422
REMARK  172  A    between atoms: _422  and  _423
REMARK  173  A    between atoms: _422  and  _425
REMARK  174  A    between atoms: _425  and  _426
REMARK  175  A    between atoms: _429  and  _431
REMARK  176  A    between atoms: _431  and  _432
REMARK  177  A    between atoms: _434  and  _436
REMARK  178  A    between atoms: _436  and  _437
REMARK  179  A    between atoms: _439  and  _441
REMARK  180  A    between atoms: _441  and  _442
REMARK  181  A    between atoms: _441  and  _444
REMARK  182  A    between atoms: _444  and  _445
REMARK  183  A    between atoms: _448  and  _450
REMARK  184  A    between atoms: _450  and  _451
REMARK  185  A    between atoms: _453  and  _455
REMARK  186  A    between atoms: _455  and  _456
REMARK  187  A    between atoms: _458  and  _460
REMARK  188  A    between atoms: _460  and  _461
REMARK  189  A    between atoms: _460  and  _463
REMARK  190  A    between atoms: _463  and  _464
REMARK  191  A    between atoms: _470  and  _472
REMARK  192  A    between atoms: _472  and  _473
REMARK  193  A    between atoms: _472  and  _475
REMARK  194  A    between atoms: _478  and  _480
REMARK  195  A    between atoms: _480  and  _481
REMARK  196  A    between atoms: _480  and  _483
REMARK  197  A    between atoms: _486  and  _488
REMARK  198  A    between atoms: _488  and  _489
REMARK  199  A    between atoms: _488  and  _491
REMARK  200  A    between atoms: _491  and  _492
REMARK  201  A    between atoms: _495  and  _497
REMARK  202  A    between atoms: _497  and  _498
REMARK  203  A    between atoms: _497  and  _500
REMARK  204  A    between atoms: _500  and  _501
REMARK  205  A    between atoms: _505  and  _506
REMARK  206  A    between atoms: _511  and  _513
REMARK  207  A    between atoms: _513  and  _514
REMARK  208  A    between atoms: _517  and  _519
REMARK  209  A    between atoms: _519  and  _520
REMARK  210  A    between atoms: _519  and  _522
REMARK  211  A    between atoms: _522  and  _523
REMARK  212  A    between atoms: _528  and  _530
REMARK  213  A    between atoms: _530  and  _531
REMARK  214  A    between atoms: _530  and  _533
REMARK  215  A    between atoms: _533  and  _534
REMARK  216  A    between atoms: _537  and  _539
REMARK  217  A    between atoms: _539  and  _540
REMARK  218  A    between atoms: _539  and  _542
REMARK  219  A    between atoms: _542  and  _543
REMARK  220  A    between atoms: _546  and  _548
REMARK  221  A    between atoms: _548  and  _549
REMARK  222  A    between atoms: _551  and  _553
REMARK  223  A    between atoms: _553  and  _554
REMARK  224  A    between atoms: _553  and  _556
REMARK  225  A    between atoms: _556  and  _557
REMARK  226  A    between atoms: _557  and  _558
REMARK  227  A    between atoms: _558  and  _559
REMARK  228  A    between atoms: _568  and  _570
REMARK  229  A    between atoms: _570  and  _571
REMARK  230  A    between atoms: _570  and  _573
REMARK  231  A    between atoms: _573  and  _574
REMARK                            x       y       z     vdW  Elec       q    Type
REMARK                         _______ _______ _______ _____ _____    ______ ____
ROOT
ATOM      1  NE  ARG A   1      21.014   8.046   6.129  0.00  0.00    -0.265 N 
ATOM      2  CZ  ARG A   1      20.265   8.898   6.805  0.00  0.00    +0.342 C 
ATOM      3  NH2 ARG A   1      19.381   8.443   7.674  0.00  0.00    -0.292 N 
ATOM      4 HH21 ARG A   1      18.788   9.109   8.210  0.00  0.00    +0.255 HD
ATOM      5 HH22 ARG A   1      19.278   7.419   7.823  0.00  0.00    +0.255 HD
ATOM      6  NH1 ARG A   1      20.406  10.215   6.620  0.00  0.00    -0.292 N 
ATOM      7 HH11 ARG A   1      19.814  10.882   7.155  0.00  0.00    +0.255 HD
ATOM      8 HH12 ARG A   1      21.108  10.573   5.941  0.00  0.00    +0.255 HD
ATOM      9  HE  ARG A   1      20.881   7.032   6.316  0.00  0.00    +0.259 HD
ENDROOT
BRANCH   1  10
ATOM     10  CD  ARG A   1      22.019   8.428   5.135  0.00  0.00    +0.174 C 
BRANCH  10  11
ATOM     11  CG  ARG A   1      23.394   7.967   5.527  0.00  0.00    +0.045 C 
BRANCH  11  12
ATOM     12  CB  ARG A   1      24.495   8.540   4.666  0.00  0.00    +0.029 C 
BRANCH  12  13
ATOM     13  CA  ARG A   1      25.876   8.039   5.055  0.00  0.00    +0.133 C 
BRANCH  13  14
ATOM     14  N   ARG A   1      26.296   8.493   6.379  0.00  0.00    -0.239 NA
ATOM     15  H   ARG A   1      25.711   9.170   6.909  0.00  0.00    +0.142 HD
ENDBRANCH  13  14
BRANCH  13  16
ATOM     16  C   ARG A   1      26.928   8.499   4.054  0.00  0.00    +0.224 C 
ATOM     17  O   ARG A   1      27.338   9.671   4.055  0.00  0.00    -0.287 OA
ENDBRANCH  13  16
ENDBRANCH  12  13
ENDBRANCH  11  12
ENDBRANCH  10  11
ENDBRANCH   1  10
TORSDOF 6
REMARK  Name = ../refined-set-2016/2p3a/2p3a_pocket.pdb
REMARK  231 active torsions:
REMARK  status: ('A' for Active; 'I' for Inactive)
REMARK    1  A    between atoms: _1  and  _3
REMARK    2  A    between atoms: _3  and  _4
REMARK    3  A    between atoms: _3  and  _6
REMARK    4  A    between atoms: _6  and  _7
REMARK    5  A    between atoms: _7  and  _8
REMARK    6  A    between atoms: _8  and  _9
REMARK    7  A    between atoms: _18  and  _20
REMARK    8  A    between atoms: _20  and  _21
REMARK    9  A    between atoms: _20  and  _23
REMARK   10  A    between atoms: _23  and  _24
REMARK   11  A    between atoms: _27  and  _29
REMARK   12  A    between atoms: _29  and  _30
REMARK   13  A    between atoms: _29  and  _32
REMARK   14  A    between atoms: _32  and  _33
REMARK   15  A    between atoms: _36  and  _38
REMARK   16  A    between atoms: _38  and  _39
REMARK   17  A    between atoms: _38  and  _41
REMARK   18  A    between atoms: _41  and  _42
REMARK   19  A    between atoms: _45  and  _47
REMARK   20  A    between atoms: _47  and  _48
REMARK   21  A    between atoms: _47  and  _50
REMARK   22  A    between atoms: _50  and  _51
REMARK   23  A    between atoms: _54  and  _56
REMARK   24  A    between atoms: _56  and  _57
REMARK   25  A    between atoms: _59  and  _61
REMARK   26  A    between atoms: _61  and  _62
REMARK   27  A    between atoms: _65  and  _67
REMARK   28  A    between atoms: _67  and  _68
REMARK   29  A    between atoms: _67  and  _70
REMARK   30  A    between atoms: _70  and  _71
REMARK   31  A    between atoms: _74  and  _76
REMARK   32  A    between atoms: _76  and  _77
REMARK   33  A    between atoms: _76  and  _79
REMARK   34  A    between atoms: _79  and  _80
REMARK   35  A    between atoms: _83  and  _85
REMARK   36  A    between atoms: _85  and  _86
REMARK   37  A    between atoms: _85  and  _88
REMARK   38  A    between atoms: _88  and  _89
REMARK   39  A    between atoms: _92  and  _94
REMARK   40  A    between atoms: _94  and  _95
REMARK   41  A    between atoms: _94  and  _97
REMARK   42  A    between atoms: _100  and  _102
REMARK   43  A    between atoms: _102  and  _103
REMARK   44  A    between atoms: _102  and  _105
REMARK   45  A    between atoms: _105  and  _106
REMARK   46  A    between atoms: _106  and  _107
REMARK   47  A    between atoms: _107  and  _108
REMARK   48  A    between atoms: _117  and  _119
REMARK   49  A    between atoms: _119  and  _120
REMARK   50  A    between atoms: _119  and  _122
REMARK   51  A    between atoms: _122  and  _123
REMARK   52  A    between atoms: _123  and  _124
REMARK   53  A    between atoms: _126  and  _128
REMARK   54  A    between atoms: _128  and  _129
REMARK   55  A    between atoms: _128  and  _131
REMARK   56  A    between atoms: _131  and  _132
REMARK   57  A    between atoms: _135  and  _137
REMARK   58  A    between atoms: _137  and  _138
REMARK   59  A    between atoms: _140  and  _142
REMARK   60  A    between atoms: _142  and  _143
REMARK   61  A    between atoms: _145  and  _147
REMARK   62  A    between atoms: _147  and  _148
REMARK   63  A    between atoms: _147  and  _150
REMARK   64  A    between atoms: _150  and  _151
REMARK   65  A    between atoms: _154  and  _156
REMARK   66  A    between atoms: _156  and  _157
REMARK   67  A    between atoms: _159  and  _161
REMARK   68  A    between atoms: _161  and  _162
REMARK   69  A    between atoms: _164  and  _166
REMARK   70  A    between atoms: _166  and  _167
REMARK   71  A    between atoms: _166  and  _169
REMARK   72  A    between atoms: _169  and  _170
REMARK   73  A    between atoms: _176  and  _178
REMARK   74  A    between atoms: _178  and  _179
REMARK   75  A    between atoms: _178  and  _181
REMARK   76  A    between atoms: _184  and  _186
REMARK   77  A    between atoms: _186  and  _187
REMARK   78  A    between atoms: _186  and  _189
REMARK   79  A    between atoms: _192  and  _194
REMARK   80  A    between atoms: _194  and  _195
REMARK   81  A    between atoms: _194  and  _197
REMARK   82  A    between atoms: _197  and  _198
REMARK   83  A    between atoms: _198  and  _199
REMARK   84  A    between atoms: _204  and  _206
REMARK   85  A    between atoms: _206  and  _207
REMARK   86  A    between atoms: _206  and  _209
REMARK   87  A    between atoms: _209  and  _210
REMARK   88  A    between atoms: _213  and  _215
REMARK   89  A    between atoms: _215  and  _216
REMARK   90  A    between atoms: _215  and  _218
REMARK   91  A    between atoms: _218  and  _219
REMARK   92  A    between atoms: _223  and  _224
REMARK   93  A    between atoms: _229  and  _231
REMARK   94  A    between atoms: _231  and  _232
REMARK   95  A    between atoms: _235  and  _237
REMARK   96  A    between atoms: _237  and  _238
REMARK   97  A    between atoms: _237  and  _240
REMARK   98  A    between atoms: _240  and  _241
REMARK   99  A    between atoms: _246  and  _248
REMARK  100  A    between atoms: _248  and  _249
REMARK  101  A    between atoms: _248  and  _251
REMARK  102  A    between atoms: _251  and  _252
REMARK  103  A    between atoms: _255  and  _257
REMARK  104  A    between atoms: _257  and  _258
REMARK  105  A    between atoms: _257  and  _260
REMARK  106  A    between atoms: _260  and  _261
REMARK  107  A    between atoms: _264  and  _266
REMARK  108  A    between atoms: _266  and  _267
REMARK  109  A    between atoms: _269  and  _271
REMARK  110  A    between atoms: _271  and  _272
REMARK  111  A    between atoms: _271  and  _274
REMARK  112  A    between atoms: _274  and  _275
REMARK  113  A    between atoms: _275  and  _276
REMARK  114  A    between atoms: _276  and  _277
REMARK  115  A    between atoms: _286  and  _288
REMARK  116  A    between atoms: _288  and  _289
REMARK  117  A    between atoms: _288  and  _291
REMARK  118  A    between atoms: _291  and  _292
REMARK  119  A    between atoms: _292  and  _293
REMARK  120  A    between atoms: _293  and  _294
REMARK  121  A    between atoms: _303  and  _305
REMARK  122  A    between atoms: _305  and  _306
REMARK  123  A    between atoms: _305  and  _308
REMARK  124  A    between atoms: _308  and  _309
REMARK  125  A    between atoms: _312  and  _314
REMARK  126  A    between atoms: _314  and  _315
REMARK  127  A    between atoms: _314  and  _317
REMARK  128  A    between atoms: _317  and  _318
REMARK  129  A    between atoms: _321  and  _323
REMARK  130  A    between atoms: _323  and  _324
REMARK  131  A    between atoms: _323  and  _326
REMARK  132  A    between atoms: _326  and  _327
REMARK  133  A    between atoms: _330  and  _332
REMARK  134  A    between atoms: _332  and  _333
REMARK  135  A    between atoms: _332  and  _335
REMARK  136  A    between atoms: _335  and  _336
REMARK  137  A    between atoms: _339  and  _341
REMARK  138  A    between atoms: _341  and  _342
REMARK  139  A    between atoms: _344  and  _346
REMARK  140  A    between atoms: _346  and  _347
REMARK  141  A    between atoms: _350  and  _352
REMARK  142  A    between atoms: _352  and  _353
REMARK  143  A    between atoms: _352  and  _355
REMARK  144  A    between atoms: _355  and  _356
REMARK  145  A    between atoms: _359  and  _361
REMARK  146  A    between atoms: _361  and  _362
REMARK  147  A    between atoms: _361  and  _364
REMARK  148  A    between atoms: _364  and  _365
REMARK  149  A    between atoms: _368  and  _370
REMARK  150  A    between atoms: _370  and  _371
REMARK  151  A    between atoms: _370  and  _373
REMARK  152  A    between atoms: _373  and  _374
REMARK  153  A    between atoms: _377  and  _379
REMARK  154  A    between atoms: _379  and  _380
REMARK  155  A    between atoms: _379  and  _382
REMARK  156  A    between atoms: _385  and  _387
REMARK  157  A    between atoms: _387  and  _388
REMARK  158  A    between atoms: _387  and  _390
REMARK  159  A    between atoms: _390  and  _391
REMARK  160  A    between atoms: _394  and  _396
REMARK  161  A    between atoms: _396  and  _397
REMARK  162  A    between atoms: _396  and  _399
REMARK  163  A    between atoms: _399  and  _400
REMARK  164  A    between atoms: _400  and  _401
REMARK  165  A    between atoms: _401  and  _402
REMARK  166  A    between atoms: _411  and  _413
REMARK  167  A    between atoms: _413  and  _414
REMARK  168  A    between atoms: _413  and  _416
REMARK  169  A    between atoms: _416  and  _417
REMARK  170  A    between atoms: _417  and  _418
REMARK  171  A    between atoms: _420  and  _422
REMARK  172  A    between atoms: _422  and  _423
REMARK  173  A    between atoms: _422  and  _425
REMARK  174  A    between atoms: _425  and  _426
REMARK  175  A    between atoms: _429  and  _431
REMARK  176  A    between atoms: _431  and  _432
REMARK  177  A    between atoms: _434  and  _436
REMARK  178  A    between atoms: _436  and  _437
REMARK  179  A    between atoms: _439  and  _441
REMARK  180  A    between atoms: _441  and  _442
REMARK  181  A    between atoms: _441  and  _444
REMARK  182  A    between atoms: _444  and  _445
REMARK  183  A    between atoms: _448  and  _450
REMARK  184  A    between atoms: _450  and  _451
REMARK  185  A    between atoms: _453  and  _455
REMARK  186  A    between atoms: _455  and  _456
REMARK  187  A    between atoms: _458  and  _460
REMARK  188  A    between atoms: _460  and  _461
REMARK  189  A    between atoms: _460  and  _463
REMARK  190  A    between atoms: _463  and  _464
REMARK  191  A    between atoms: _470  and  _472
REMARK  192  A    between atoms: _472  and  _473
REMARK  193  A    between atoms: _472  and  _475
REMARK  194  A    between atoms: _478  and  _480
REMARK  195  A    between atoms: _480  and  _481
REMARK  196  A    between atoms: _480  and  _483
REMARK  197  A    between atoms: _486  and  _488
REMARK  198  A    between atoms: _488  and  _489
REMARK  199  A    between atoms: _488  and  _491
REMARK  200  A    between atoms: _491  and  _492
REMARK  201  A    between atoms: _495  and  _497
REMARK  202  A    between atoms: _497  and  _498
REMARK  203  A    between atoms: _497  and  _500
REMARK  204  A    between atoms: _500  and  _501
REMARK  205  A    between atoms: _505  and  _506
REMARK  206  A    between atoms: _511  and  _513
REMARK  207  A    between atoms: _513  and  _514
REMARK  208  A    between atoms: _517  and  _519
REMARK  209  A    between atoms: _519  and  _520
REMARK  210  A    between atoms: _519  and  _522
REMARK  211  A    between atoms: _522  and  _523
REMARK  212  A    between atoms: _528  and  _530
REMARK  213  A    between atoms: _530  and  _531
REMARK  214  A    between atoms: _530  and  _533
REMARK  215  A    between atoms: _533  and  _534
REMARK  216  A    between atoms: _537  and  _539
REMARK  217  A    between atoms: _539  and  _540
REMARK  218  A    between atoms: _539  and  _542
REMARK  219  A    between atoms: _542  and  _543
REMARK  220  A    between atoms: _546  and  _548
REMARK  221  A    between atoms: _548  and  _549
REMARK  222  A    between atoms: _551  and  _553
REMARK  223  A    between atoms: _553  and  _554
REMARK  224  A    between atoms: _553  and  _556
REMARK  225  A    between atoms: _556  and  _557
REMARK  226  A    between atoms: _557  and  _558
REMARK  227  A    between atoms: _558  and  _559
REMARK  228  A    between atoms: _568  and  _570
REMARK  229  A    between atoms: _570  and  _571
REMARK  230  A    between atoms: _570  and  _573
REMARK  231  A    between atoms: _573  and  _574
REMARK                            x       y       z     vdW  Elec       q    Type
REMARK                         _______ _______ _______ _____ _____    ______ ____
ROOT
ATOM      1  C   ALA A   6      21.994  -1.575  -5.921  0.00  0.00    +0.241 C 
ATOM      2  O   ALA A   6      23.144  -1.309  -6.236  0.00  0.00    -0.273 OA
ATOM      3  N   ASP A   7      21.224  -2.381  -6.659  0.00  0.00    -0.297 N 
ATOM      4  H   ASP A   7      20.263  -2.618  -6.339  0.00  0.00    +0.150 HD
ENDROOT
BRANCH   1   5
ATOM      5  CA  ALA A   6      21.386  -0.993  -4.659  0.00  0.00    +0.149 C 
ATOM      6  CB  ALA A   6      21.297   0.541  -4.752  0.00  0.00    +0.031 C 
BRANCH   5   9
ATOM      7  C   GLY A   5      21.790  -2.250  -2.598  0.00  0.00    +0.243 C 
ATOM      8  O   GLY A   5      20.628  -2.726  -2.597  0.00  0.00    -0.273 OA
ATOM      9  N   ALA A   6      22.233  -1.404  -3.528  0.00  0.00    -0.297 N 
ATOM     10  H   ALA A   6      23.199  -1.026  -3.453  0.00  0.00    +0.150 HD
BRANCH   7  11
ATOM     11  CA  GLY A   5      22.754  -2.572  -1.475  0.00  0.00    +0.176 C 
BRANCH  11  13
ATOM     12  C   THR A   4      25.030  -2.083  -2.174  0.00  0.00    +0.243 C 
ATOM     13  N   GLY A   5      23.943  -1.737  -1.495  0.00  0.00    -0.295 N 
ATOM     14  H   GLY A   5      23.942  -0.844  -0.963  0.00  0.00    +0.150 HD
ATOM     15  O   THR A   4      25.141  -3.177  -2.731  0.00  0.00    -0.273 OA
BRANCH  12  16
ATOM     16  CA  THR A   4      26.206  -1.095  -2.209  0.00  0.00    +0.176 C 
BRANCH  16  18
ATOM     17  C   ASP A   3      25.024   0.976  -2.534  0.00  0.00    +0.241 C 
ATOM     18  N   THR A   4      25.830   0.243  -1.776  0.00  0.00    -0.295 N 
ATOM     19  H   THR A   4      26.191   0.622  -0.878  0.00  0.00    +0.150 HD
ATOM     20  O   ASP A   3      24.534   0.560  -3.584  0.00  0.00    -0.273 OA
BRANCH  17  21
ATOM     21  CA  ASP A   3      24.711   2.390  -2.028  0.00  0.00    +0.160 C 
BRANCH  21  24
ATOM     22  C   LEU A   2      26.281   4.171  -1.923  0.00  0.00    +0.241 C 
ATOM     23  O   LEU A   2      26.422   4.021  -0.693  0.00  0.00    -0.273 OA
ATOM     24  N   ASP A   3      25.589   3.342  -2.678  0.00  0.00    -0.297 N 
ATOM     25  H   ASP A   3      25.671   3.370  -3.714  0.00  0.00    +0.150 HD
BRANCH  22  26
ATOM     26  CA  LEU A   2      26.861   5.362  -2.622  0.00  0.00    +0.149 C 
BRANCH  26  28
ATOM     27  C   LEU A   1      24.899   6.789  -2.394  0.00  0.00    +0.238 C 
ATOM     28  N   LEU A   2      26.164   6.536  -2.062  0.00  0.00    -0.297 N 
ATOM     29  H   LEU A   2      26.663   7.169  -1.405  0.00  0.00    +0.150 HD
ATOM     30  O   LEU A   1      24.321   6.176  -3.293  0.00  0.00    -0.274 OA
BRANCH  27  31
ATOM     31  CA  LEU A   1      24.194   7.882  -1.615  0.00  0.00    +0.145 C 
BRANCH  31  32
ATOM     32  N   LEU A   1      23.674   8.850  -2.526  0.00  0.00    -0.238 NA
ATOM     33  H   LEU A   1      22.720   8.708  -2.916  0.00  0.00    +0.142 HD
ENDBRANCH  31  32
BRANCH  31  34
ATOM     34  CB  LEU A   1      23.015   7.347  -0.844  0.00  0.00    +0.026 C 
BRANCH  34  35
ATOM     35  CG  LEU A   1      23.241   6.255   0.174  0.00  0.00    +0.002 C 
ATOM     36  CD2 LEU A   1      24.059   6.834   1.326  0.00  0.00    +0.000 C 
ATOM     37  CD1 LEU A   1      21.879   5.662   0.625  0.00  0.00    +0.000 C 
ENDBRANCH  34  35
ENDBRANCH  31  34
ENDBRANCH  27  31
ENDBRANCH  26  28
BRANCH  26  38
ATOM     38  CB  LEU A   2      28.347   5.439  -2.338  0.00  0.00    +0.029 C 
BRANCH  38  39
ATOM     39  CG  LEU A   2      29.101   6.575  -3.056  0.00  0.00    +0.002 C 
ATOM     40  CD2 LEU A   2      30.523   6.492  -2.514  0.00  0.00    +0.000 C 
ATOM     41  CD1 LEU A   2      29.028   6.385  -4.544  0.00  0.00    +0.000 C 
ENDBRANCH  38  39
ENDBRANCH  26  38
ENDBRANCH  22  26
ENDBRANCH  21  24
BRANCH  21  42
ATOM     42  CB  ASP A   3      23.286   2.740  -2.386  0.00  0.00    +0.143 C 
BRANCH  42  43
ATOM     43  CG  ASP A   3      22.292   1.868  -1.685  0.00  0.00    +0.367 C 
ATOM     44  OD2 ASP A   3      22.687   0.939  -0.955  0.00  0.00    -0.246 OA
ATOM     45  OD1 ASP A   3      21.083   2.057  -1.815  0.00  0.00    -0.246 OA
ENDBRANCH  42  43
ENDBRANCH  21  42
ENDBRANCH  17  21
ENDBRANCH  16  18
BRANCH  16  46
ATOM     46  CB  THR A   4      27.349  -1.671  -1.383  0.00  0.00    +0.137 C 
ATOM     47  CG2 THR A   4      28.625  -0.817  -1.456  0.00  0.00    +0.034 C 
BRANCH  46  48
ATOM     48  OG1 THR A   4      26.985  -1.632   0.003  0.00  0.00    -0.382 OA
ATOM     49  HG1 THR A   4      26.166  -2.170   0.143  0.00  0.00    +0.210 HD
ENDBRANCH  46  48
ENDBRANCH  16  46
ENDBRANCH  12  16
ENDBRANCH  11  13
ENDBRANCH   7  11
ENDBRANCH   5   9
ENDBRANCH   1   5
BRANCH   3  50
ATOM     50  CA  ASP A   7      21.728  -2.924  -7.904  0.00  0.00    +0.160 C 
BRANCH  50  51
ATOM     51  C   ASP A   7      21.870  -1.797  -8.914  0.00  0.00    +0.241 C 
ATOM     52  N   ASP A   8      20.867  -0.918  -8.901  0.00  0.00    -0.297 N 
ATOM     53  H   ASP A   8      20.180  -0.993  -8.124  0.00  0.00    +0.150 HD
ATOM     54  O   ASP A   7      22.852  -1.725  -9.664  0.00  0.00    -0.273 OA
BRANCH  52  55
ATOM     55  CA  ASP A   8      20.655   0.117  -9.862  0.00  0.00    +0.160 C 
BRANCH  55  56
ATOM     56  C   ASP A   8      20.798   1.492  -9.220  0.00  0.00    +0.241 C 
ATOM     57  O   ASP A   8      20.799   1.641  -7.999  0.00  0.00    -0.273 OA
ATOM     58  N   THR A   9      20.857   2.499 -10.063  0.00  0.00    -0.295 N 
ATOM     59  H   THR A   9      20.824   2.304 -11.084  0.00  0.00    +0.150 HD
BRANCH  58  60
ATOM     60  CA  THR A   9      20.965   3.847  -9.621  0.00  0.00    +0.176 C 
BRANCH  60  61
ATOM     61  C   THR A   9      19.602   4.510  -9.753  0.00  0.00    +0.243 C 
ATOM     62  N   VAL A  10      19.148   5.152  -8.676  0.00  0.00    -0.297 N 
ATOM     63  H   VAL A  10      19.782   5.274  -7.860  0.00  0.00    +0.150 HD
ATOM     64  O   THR A   9      18.945   4.356 -10.783  0.00  0.00    -0.273 OA
BRANCH  62  65
ATOM     65  CA  VAL A  10      17.781   5.695  -8.601  0.00  0.00    +0.149 C 
BRANCH  65  66
ATOM     66  C   VAL A  10      17.889   7.122  -8.111  0.00  0.00    +0.241 C 
ATOM     67  O   VAL A  10      18.429   7.398  -7.026  0.00  0.00    -0.273 OA
ATOM     68  N   LEU A  11      17.406   8.031  -8.936  0.00  0.00    -0.298 N 
ATOM     69  H   LEU A  11      16.963   7.731  -9.828  0.00  0.00    +0.150 HD
BRANCH  68  70
ATOM     70  CA  LEU A  11      17.483   9.413  -8.623  0.00  0.00    +0.137 C 
BRANCH  70  71
ATOM     71  C   LEU A  11      16.096   9.946  -8.463  0.00  0.00    +0.227 C 
ATOM     72  O   LEU A  11      15.150   9.456  -9.110  0.00  0.00    -0.286 OA
ENDBRANCH  70  71
BRANCH  70  73
ATOM     73  CB  LEU A  11      18.160  10.190  -9.756  0.00  0.00    +0.028 C 
BRANCH  73  74
ATOM     74  CG  LEU A  11      19.619   9.799  -9.955  0.00  0.00    +0.002 C 
ATOM     75  CD2 LEU A  11      20.370   9.762  -8.618  0.00  0.00    +0.000 C 
ATOM     76  CD1 LEU A  11      20.207  10.800 -10.876  0.00  0.00    +0.000 C 
ENDBRANCH  73  74
ENDBRANCH  70  73
ENDBRANCH  68  70
ENDBRANCH  65  66
BRANCH  65  77
ATOM     77  CB  VAL A  10      16.845   4.978  -7.629  0.00  0.00    +0.027 C 
ATOM     78  CG2 VAL A  10      16.979   3.454  -7.700  0.00  0.00    +0.002 C 
ATOM     79  CG1 VAL A  10      15.442   5.424  -7.952  0.00  0.00    +0.002 C 
ENDBRANCH  65  77
ENDBRANCH  62  65
ENDBRANCH  60  61
BRANCH  60  80
ATOM     80  CB  THR A   9      22.001   4.506 -10.502  0.00  0.00    +0.137 C 
ATOM     81  CG2 THR A   9      22.029   6.038 -10.264  0.00  0.00    +0.034 C 
BRANCH  80  82
ATOM     82  OG1 THR A   9      23.287   4.013 -10.095  0.00  0.00    -0.382 OA
ATOM     83  HG1 THR A   9      23.312   3.030 -10.205  0.00  0.00    +0.210 HD
ENDBRANCH  80  82
ENDBRANCH  60  80
ENDBRANCH  58  60
ENDBRANCH  55  56
BRANCH  55  84
ATOM     84  CB  ASP A   8      19.239  -0.034 -10.423  0.00  0.00    +0.143 C 
BRANCH  84  85
ATOM     85  CG  ASP A   8      18.971  -1.444 -10.903  0.00  0.00    +0.367 C 
ATOM     86  OD2 ASP A   8      18.112  -2.218 -10.392  0.00  0.00    -0.246 OA
ATOM     87  OD1 ASP A   8      19.692  -1.875 -11.832  0.00  0.00    -0.246 OA
ENDBRANCH  84  85
ENDBRANCH  55  84
ENDBRANCH  52  55
ENDBRANCH  50  51
BRANCH  50  88
ATOM     88  CB  ASP A   7      20.701  -3.891  -8.496  0.00  0.00    +0.143 C 
BRANCH  88  89
ATOM     89  CG  ASP A   7      20.350  -5.052  -7.569  0.00  0.00    +0.367 C 
ATOM     90  OD2 ASP A   7      21.136  -5.354  -6.652  0.00  0.00    -0.246 OA
ATOM     91  OD1 ASP A   7      19.298  -5.729  -7.744  0.00  0.00    -0.246 OA
ENDBRANCH  88  89
ENDBRANCH  50  88
ENDBRANCH   3  50
TORSDOF 39
REMARK  Name = ../refined-set-2016/2p3a/2p3a_pocket.pdb
REMARK  231 active torsions:
REMARK  status: ('A' for Active; 'I' for Inactive)
REMARK    1  A    between atoms: _1  and  _3
REMARK    2  A    between atoms: _3  and  _4
REMARK    3  A    between atoms: _3  and  _6
REMARK    4  A    between atoms: _6  and  _7
REMARK    5  A    between atoms: _7  and  _8
REMARK    6  A    between atoms: _8  and  _9
REMARK    7  A    between atoms: _18  and  _20
REMARK    8  A    between atoms: _20  and  _21
REMARK    9  A    between atoms: _20  and  _23
REMARK   10  A    between atoms: _23  and  _24
REMARK   11  A    between atoms: _27  and  _29
REMARK   12  A    between atoms: _29  and  _30
REMARK   13  A    between atoms: _29  and  _32
REMARK   14  A    between atoms: _32  and  _33
REMARK   15  A    between atoms: _36  and  _38
REMARK   16  A    between atoms: _38  and  _39
REMARK   17  A    between atoms: _38  and  _41
REMARK   18  A    between atoms: _41  and  _42
REMARK   19  A    between atoms: _45  and  _47
REMARK   20  A    between atoms: _47  and  _48
REMARK   21  A    between atoms: _47  and  _50
REMARK   22  A    between atoms: _50  and  _51
REMARK   23  A    between atoms: _54  and  _56
REMARK   24  A    between atoms: _56  and  _57
REMARK   25  A    between atoms: _59  and  _61
REMARK   26  A    between atoms: _61  and  _62
REMARK   27  A    between atoms: _65  and  _67
REMARK   28  A    between atoms: _67  and  _68
REMARK   29  A    between atoms: _67  and  _70
REMARK   30  A    between atoms: _70  and  _71
REMARK   31  A    between atoms: _74  and  _76
REMARK   32  A    between atoms: _76  and  _77
REMARK   33  A    between atoms: _76  and  _79
REMARK   34  A    between atoms: _79  and  _80
REMARK   35  A    between atoms: _83  and  _85
REMARK   36  A    between atoms: _85  and  _86
REMARK   37  A    between atoms: _85  and  _88
REMARK   38  A    between atoms: _88  and  _89
REMARK   39  A    between atoms: _92  and  _94
REMARK   40  A    between atoms: _94  and  _95
REMARK   41  A    between atoms: _94  and  _97
REMARK   42  A    between atoms: _100  and  _102
REMARK   43  A    between atoms: _102  and  _103
REMARK   44  A    between atoms: _102  and  _105
REMARK   45  A    between atoms: _105  and  _106
REMARK   46  A    between atoms: _106  and  _107
REMARK   47  A    between atoms: _107  and  _108
REMARK   48  A    between atoms: _117  and  _119
REMARK   49  A    between atoms: _119  and  _120
REMARK   50  A    between atoms: _119  and  _122
REMARK   51  A    between atoms: _122  and  _123
REMARK   52  A    between atoms: _123  and  _124
REMARK   53  A    between atoms: _126  and  _128
REMARK   54  A    between atoms: _128  and  _129
REMARK   55  A    between atoms: _128  and  _131
REMARK   56  A    between atoms: _131  and  _132
REMARK   57  A    between atoms: _135  and  _137
REMARK   58  A    between atoms: _137  and  _138
REMARK   59  A    between atoms: _140  and  _142
REMARK   60  A    between atoms: _142  and  _143
REMARK   61  A    between atoms: _145  and  _147
REMARK   62  A    between atoms: _147  and  _148
REMARK   63  A    between atoms: _147  and  _150
REMARK   64  A    between atoms: _150  and  _151
REMARK   65  A    between atoms: _154  and  _156
REMARK   66  A    between atoms: _156  and  _157
REMARK   67  A    between atoms: _159  and  _161
REMARK   68  A    between atoms: _161  and  _162
REMARK   69  A    between atoms: _164  and  _166
REMARK   70  A    between atoms: _166  and  _167
REMARK   71  A    between atoms: _166  and  _169
REMARK   72  A    between atoms: _169  and  _170
REMARK   73  A    between atoms: _176  and  _178
REMARK   74  A    between atoms: _178  and  _179
REMARK   75  A    between atoms: _178  and  _181
REMARK   76  A    between atoms: _184  and  _186
REMARK   77  A    between atoms: _186  and  _187
REMARK   78  A    between atoms: _186  and  _189
REMARK   79  A    between atoms: _192  and  _194
REMARK   80  A    between atoms: _194  and  _195
REMARK   81  A    between atoms: _194  and  _197
REMARK   82  A    between atoms: _197  and  _198
REMARK   83  A    between atoms: _198  and  _199
REMARK   84  A    between atoms: _204  and  _206
REMARK   85  A    between atoms: _206  and  _207
REMARK   86  A    between atoms: _206  and  _209
REMARK   87  A    between atoms: _209  and  _210
REMARK   88  A    between atoms: _213  and  _215
REMARK   89  A    between atoms: _215  and  _216
REMARK   90  A    between atoms: _215  and  _218
REMARK   91  A    between atoms: _218  and  _219
REMARK   92  A    between atoms: _223  and  _224
REMARK   93  A    between atoms: _229  and  _231
REMARK   94  A    between atoms: _231  and  _232
REMARK   95  A    between atoms: _235  and  _237
REMARK   96  A    between atoms: _237  and  _238
REMARK   97  A    between atoms: _237  and  _240
REMARK   98  A    between atoms: _240  and  _241
REMARK   99  A    between atoms: _246  and  _248
REMARK  100  A    between atoms: _248  and  _249
REMARK  101  A    between atoms: _248  and  _251
REMARK  102  A    between atoms: _251  and  _252
REMARK  103  A    between atoms: _255  and  _257
REMARK  104  A    between atoms: _257  and  _258
REMARK  105  A    between atoms: _257  and  _260
REMARK  106  A    between atoms: _260  and  _261
REMARK  107  A    between atoms: _264  and  _266
REMARK  108  A    between atoms: _266  and  _267
REMARK  109  A    between atoms: _269  and  _271
REMARK  110  A    between atoms: _271  and  _272
REMARK  111  A    between atoms: _271  and  _274
REMARK  112  A    between atoms: _274  and  _275
REMARK  113  A    between atoms: _275  and  _276
REMARK  114  A    between atoms: _276  and  _277
REMARK  115  A    between atoms: _286  and  _288
REMARK  116  A    between atoms: _288  and  _289
REMARK  117  A    between atoms: _288  and  _291
REMARK  118  A    between atoms: _291  and  _292
REMARK  119  A    between atoms: _292  and  _293
REMARK  120  A    between atoms: _293  and  _294
REMARK  121  A    between atoms: _303  and  _305
REMARK  122  A    between atoms: _305  and  _306
REMARK  123  A    between atoms: _305  and  _308
REMARK  124  A    between atoms: _308  and  _309
REMARK  125  A    between atoms: _312  and  _314
REMARK  126  A    between atoms: _314  and  _315
REMARK  127  A    between atoms: _314  and  _317
REMARK  128  A    between atoms: _317  and  _318
REMARK  129  A    between atoms: _321  and  _323
REMARK  130  A    between atoms: _323  and  _324
REMARK  131  A    between atoms: _323  and  _326
REMARK  132  A    between atoms: _326  and  _327
REMARK  133  A    between atoms: _330  and  _332
REMARK  134  A    between atoms: _332  and  _333
REMARK  135  A    between atoms: _332  and  _335
REMARK  136  A    between atoms: _335  and  _336
REMARK  137  A    between atoms: _339  and  _341
REMARK  138  A    between atoms: _341  and  _342
REMARK  139  A    between atoms: _344  and  _346
REMARK  140  A    between atoms: _346  and  _347
REMARK  141  A    between atoms: _350  and  _352
REMARK  142  A    between atoms: _352  and  _353
REMARK  143  A    between atoms: _352  and  _355
REMARK  144  A    between atoms: _355  and  _356
REMARK  145  A    between atoms: _359  and  _361
REMARK  146  A    between atoms: _361  and  _362
REMARK  147  A    between atoms: _361  and  _364
REMARK  148  A    between atoms: _364  and  _365
REMARK  149  A    between atoms: _368  and  _370
REMARK  150  A    between atoms: _370  and  _371
REMARK  151  A    between atoms: _370  and  _373
REMARK  152  A    between atoms: _373  and  _374
REMARK  153  A    between atoms: _377  and  _379
REMARK  154  A    between atoms: _379  and  _380
REMARK  155  A    between atoms: _379  and  _382
REMARK  156  A    between atoms: _385  and  _387
REMARK  157  A    between atoms: _387  and  _388
REMARK  158  A    between atoms: _387  and  _390
REMARK  159  A    between atoms: _390  and  _391
REMARK  160  A    between atoms: _394  and  _396
REMARK  161  A    between atoms: _396  and  _397
REMARK  162  A    between atoms: _396  and  _399
REMARK  163  A    between atoms: _399  and  _400
REMARK  164  A    between atoms: _400  and  _401
REMARK  165  A    between atoms: _401  and  _402
REMARK  166  A    between atoms: _411  and  _413
REMARK  167  A    between atoms: _413  and  _414
REMARK  168  A    between atoms: _413  and  _416
REMARK  169  A    between atoms: _416  and  _417
REMARK  170  A    between atoms: _417  and  _418
REMARK  171  A    between atoms: _420  and  _422
REMARK  172  A    between atoms: _422  and  _423
REMARK  173  A    between atoms: _422  and  _425
REMARK  174  A    between atoms: _425  and  _426
REMARK  175  A    between atoms: _429  and  _431
REMARK  176  A    between atoms: _431  and  _432
REMARK  177  A    between atoms: _434  and  _436
REMARK  178  A    between atoms: _436  and  _437
REMARK  179  A    between atoms: _439  and  _441
REMARK  180  A    between atoms: _441  and  _442
REMARK  181  A    between atoms: _441  and  _444
REMARK  182  A    between atoms: _444  and  _445
REMARK  183  A    between atoms: _448  and  _450
REMARK  184  A    between atoms: _450  and  _451
REMARK  185  A    between atoms: _453  and  _455
REMARK  186  A    between atoms: _455  and  _456
REMARK  187  A    between atoms: _458  and  _460
REMARK  188  A    between atoms: _460  and  _461
REMARK  189  A    between atoms: _460  and  _463
REMARK  190  A    between atoms: _463  and  _464
REMARK  191  A    between atoms: _470  and  _472
REMARK  192  A    between atoms: _472  and  _473
REMARK  193  A    between atoms: _472  and  _475
REMARK  194  A    between atoms: _478  and  _480
REMARK  195  A    between atoms: _480  and  _481
REMARK  196  A    between atoms: _480  and  _483
REMARK  197  A    between atoms: _486  and  _488
REMARK  198  A    between atoms: _488  and  _489
REMARK  199  A    between atoms: _488  and  _491
REMARK  200  A    between atoms: _491  and  _492
REMARK  201  A    between atoms: _495  and  _497
REMARK  202  A    between atoms: _497  and  _498
REMARK  203  A    between atoms: _497  and  _500
REMARK  204  A    between atoms: _500  and  _501
REMARK  205  A    between atoms: _505  and  _506
REMARK  206  A    between atoms: _511  and  _513
REMARK  207  A    between atoms: _513  and  _514
REMARK  208  A    between atoms: _517  and  _519
REMARK  209  A    between atoms: _519  and  _520
REMARK  210  A    between atoms: _519  and  _522
REMARK  211  A    between atoms: _522  and  _523
REMARK  212  A    between atoms: _528  and  _530
REMARK  213  A    between atoms: _530  and  _531
REMARK  214  A    between atoms: _530  and  _533
REMARK  215  A    between atoms: _533  and  _534
REMARK  216  A    between atoms: _537  and  _539
REMARK  217  A    between atoms: _539  and  _540
REMARK  218  A    between atoms: _539  and  _542
REMARK  219  A    between atoms: _542  and  _543
REMARK  220  A    between atoms: _546  and  _548
REMARK  221  A    between atoms: _548  and  _549
REMARK  222  A    between atoms: _551  and  _553
REMARK  223  A    between atoms: _553  and  _554
REMARK  224  A    between atoms: _553  and  _556
REMARK  225  A    between atoms: _556  and  _557
REMARK  226  A    between atoms: _557  and  _558
REMARK  227  A    between atoms: _558  and  _559
REMARK  228  A    between atoms: _568  and  _570
REMARK  229  A    between atoms: _570  and  _571
REMARK  230  A    between atoms: _570  and  _573
REMARK  231  A    between atoms: _573  and  _574
REMARK                            x       y       z     vdW  Elec       q    Type
REMARK                         _______ _______ _______ _____ _____    ______ ____
ROOT
ATOM      1  C   GLY A   4      12.667  -2.686  -3.938  0.00  0.00    +0.243 C 
ATOM      2  N   GLY A   5      12.105  -2.246  -2.825  0.00  0.00    -0.295 N 
ATOM      3  H   GLY A   5      11.072  -2.129  -2.783  0.00  0.00    +0.150 HD
ATOM      4  O   GLY A   4      13.877  -2.773  -4.096  0.00  0.00    -0.273 OA
ENDROOT
BRANCH   2   5
ATOM      5  CA  GLY A   5      12.900  -1.929  -1.678  0.00  0.00    +0.176 C 
BRANCH   5   6
ATOM      6  C   GLY A   5      12.304  -2.616  -0.493  0.00  0.00    +0.243 C 
ATOM      7  N   ILE A   6      12.721  -2.123   0.661  0.00  0.00    -0.297 N 
ATOM      8  H   ILE A   6      13.573  -1.527   0.666  0.00  0.00    +0.150 HD
ATOM      9  O   GLY A   5      11.498  -3.571  -0.618  0.00  0.00    -0.273 OA
BRANCH   7  10
ATOM     10  CA  ILE A   6      12.050  -2.372   1.914  0.00  0.00    +0.149 C 
BRANCH  10  11
ATOM     11  C   ILE A   6      10.623  -1.875   1.785  0.00  0.00    +0.241 C 
ATOM     12  N   GLY A   7       9.689  -2.771   2.089  0.00  0.00    -0.295 N 
ATOM     13  H   GLY A   7       9.985  -3.745   2.303  0.00  0.00    +0.150 HD
ATOM     14  O   ILE A   6      10.383  -0.722   1.382  0.00  0.00    -0.273 OA
BRANCH  12  15
ATOM     15  CA  GLY A   7       8.269  -2.449   2.135  0.00  0.00    +0.176 C 
BRANCH  15  16
ATOM     16  C   GLY A   7       7.565  -2.417   0.797  0.00  0.00    +0.243 C 
ATOM     17  O   GLY A   7       6.591  -3.152   0.583  0.00  0.00    -0.273 OA
ATOM     18  N   GLY A   8       8.062  -1.597  -0.121  0.00  0.00    -0.295 N 
ATOM     19  H   GLY A   8       8.975  -1.125   0.041  0.00  0.00    +0.150 HD
BRANCH  18  20
ATOM     20  CA  GLY A   8       7.333  -1.362  -1.344  0.00  0.00    +0.176 C 
BRANCH  20  21
ATOM     21  C   GLY A   8       8.084  -1.530  -2.645  0.00  0.00    +0.243 C 
ATOM     22  O   GLY A   8       9.265  -1.941  -2.684  0.00  0.00    -0.273 OA
ATOM     23  N   PHE A   9       7.374  -1.241  -3.712  0.00  0.00    -0.297 N 
ATOM     24  H   PHE A   9       6.339  -1.164  -3.649  0.00  0.00    +0.150 HD
BRANCH  23  25
ATOM     25  CA  PHE A   9       8.035  -1.034  -4.953  0.00  0.00    +0.153 C 
BRANCH  25  26
ATOM     26  C   PHE A   9       7.774   0.397  -5.324  0.00  0.00    +0.241 C 
ATOM     27  O   PHE A   9       7.009   1.128  -4.678  0.00  0.00    -0.273 OA
ATOM     28  N   VAL A  10       8.427   0.794  -6.388  0.00  0.00    -0.298 N 
ATOM     29  H   VAL A  10       9.184   0.198  -6.780  0.00  0.00    +0.150 HD
BRANCH  28  30
ATOM     30  CA  VAL A  10       8.105   2.060  -7.027  0.00  0.00    +0.137 C 
BRANCH  30  31
ATOM     31  CB  VAL A  10       8.932   3.281  -6.512  0.00  0.00    +0.026 C 
ATOM     32  CG2 VAL A  10       8.517   3.686  -5.101  0.00  0.00    +0.002 C 
ATOM     33  CG1 VAL A  10      10.431   3.064  -6.589  0.00  0.00    +0.002 C 
ENDBRANCH  30  31
BRANCH  30  34
ATOM     34  C   VAL A  10       8.307   1.918  -8.514  0.00  0.00    +0.227 C 
ATOM     35  O   VAL A  10       9.259   1.287  -8.960  0.00  0.00    -0.286 OA
ENDBRANCH  30  34
ENDBRANCH  28  30
ENDBRANCH  25  26
BRANCH  25  36
ATOM     36  CB  PHE A   9       7.501  -1.969  -6.028  0.00  0.00    +0.055 C 
BRANCH  36  37
ATOM     37  CG  PHE A   9       6.067  -1.738  -6.367  0.00  0.00    -0.020 A 
ATOM     38  CD2 PHE A   9       5.072  -2.427  -5.693  0.00  0.00    -0.004 A 
ATOM     39  CE2 PHE A   9       3.739  -2.226  -6.008  0.00  0.00    -0.000 A 
ATOM     40  CZ  PHE A   9       3.398  -1.320  -7.001  0.00  0.00    -0.000 A 
ATOM     41  CE1 PHE A   9       4.390  -0.628  -7.683  0.00  0.00    -0.000 A 
ATOM     42  CD1 PHE A   9       5.709  -0.838  -7.369  0.00  0.00    -0.004 A 
ENDBRANCH  36  37
ENDBRANCH  25  36
ENDBRANCH  23  25
ENDBRANCH  20  21
ENDBRANCH  18  20
ENDBRANCH  15  16
ENDBRANCH  12  15
ENDBRANCH  10  11
BRANCH  10  43
ATOM     43  CB  ILE A   6      12.807  -1.634   3.066  0.00  0.00    +0.027 C 
ATOM     44  CG2 ILE A   6      11.963  -1.538   4.323  0.00  0.00    +0.002 C 
BRANCH  43  45
ATOM     45  CG1 ILE A   6      14.067  -2.407   3.417  0.00  0.00    +0.002 C 
ATOM     46  CD1 ILE A   6      13.842  -3.850   3.702  0.00  0.00    +0.000 C 
ENDBRANCH  43  45
ENDBRANCH  10  43
ENDBRANCH   7  10
ENDBRANCH   5   6
ENDBRANCH   2   5
BRANCH   1  47
ATOM     47  CA  GLY A   4      11.706  -3.068  -5.035  0.00  0.00    +0.176 C 
BRANCH  47  49
ATOM     48  C   ILE A   3      11.695  -1.697  -6.994  0.00  0.00    +0.241 C 
ATOM     49  N   GLY A   4      12.264  -2.657  -6.299  0.00  0.00    -0.295 N 
ATOM     50  H   GLY A   4      13.120  -3.122  -6.663  0.00  0.00    +0.150 HD
ATOM     51  O   ILE A   3      10.703  -1.096  -6.601  0.00  0.00    -0.273 OA
BRANCH  48  52
ATOM     52  CA  ILE A   3      12.329  -1.349  -8.313  0.00  0.00    +0.149 C 
BRANCH  52  54
ATOM     53  C   MET A   2      11.074  -1.527 -10.348  0.00  0.00    +0.241 C 
ATOM     54  N   ILE A   3      11.266  -0.907  -9.200  0.00  0.00    -0.297 N 
ATOM     55  H   ILE A   3      10.660  -0.106  -8.931  0.00  0.00    +0.150 HD
ATOM     56  O   MET A   2      11.851  -2.372 -10.769  0.00  0.00    -0.273 OA
BRANCH  53  57
ATOM     57  CA  MET A   2       9.879  -1.094 -11.174  0.00  0.00    +0.149 C 
BRANCH  57  59
ATOM     58  C   ARG A   1      10.045  -0.063 -13.347  0.00  0.00    +0.238 C 
ATOM     59  N   MET A   2      10.278  -1.112 -12.577  0.00  0.00    -0.297 N 
ATOM     60  H   MET A   2      10.747  -1.952 -12.972  0.00  0.00    +0.150 HD
ATOM     61  O   ARG A   1       9.416   0.912 -12.949  0.00  0.00    -0.274 OA
BRANCH  58  62
ATOM     62  CA  ARG A   1      10.541  -0.137 -14.787  0.00  0.00    +0.145 C 
BRANCH  62  63
ATOM     63  N   ARG A   1       9.865   0.924 -15.480  0.00  0.00    -0.238 NA
ATOM     64  H   ARG A   1       9.629   1.800 -14.971  0.00  0.00    +0.142 HD
ENDBRANCH  62  63
BRANCH  62  65
ATOM     65  CB  ARG A   1      12.046   0.123 -14.885  0.00  0.00    +0.030 C 
BRANCH  65  66
ATOM     66  CG  ARG A   1      12.952  -1.076 -14.865  0.00  0.00    +0.045 C 
BRANCH  66  67
ATOM     67  CD  ARG A   1      14.109  -0.872 -13.906  0.00  0.00    +0.174 C 
BRANCH  67  68
ATOM     68  NE  ARG A   1      15.248  -1.766 -14.120  0.00  0.00    -0.265 N 
ATOM     69  CZ  ARG A   1      15.337  -2.981 -13.608  0.00  0.00    +0.342 C 
ATOM     70  NH2 ARG A   1      14.338  -3.469 -12.868  0.00  0.00    -0.292 N 
ATOM     71 HH21 ARG A   1      14.408  -4.425 -12.465  0.00  0.00    +0.255 HD
ATOM     72 HH22 ARG A   1      13.490  -2.893 -12.695  0.00  0.00    +0.255 HD
ATOM     73  NH1 ARG A   1      16.411  -3.722 -13.846  0.00  0.00    -0.292 N 
ATOM     74 HH11 ARG A   1      16.482  -4.678 -13.444  0.00  0.00    +0.255 HD
ATOM     75 HH12 ARG A   1      17.182  -3.347 -14.435  0.00  0.00    +0.255 HD
ATOM     76  HE  ARG A   1      16.034  -1.425 -14.710  0.00  0.00    +0.259 HD
ENDBRANCH  67  68
ENDBRANCH  66  67
ENDBRANCH  65  66
ENDBRANCH  62  65
ENDBRANCH  58  62
ENDBRANCH  57  59
BRANCH  57  77
ATOM     77  CB  MET A   2       8.660  -1.986 -10.934  0.00  0.00    +0.041 C 
BRANCH  77  78
ATOM     78  CG  MET A   2       7.373  -1.528 -11.658  0.00  0.00    +0.060 C 
BRANCH  78  79
ATOM     79  SD  MET A   2       5.839  -1.837 -10.743  0.00  0.00    -0.139 S 
ATOM     80  CE  MET A   2       4.625  -1.482 -12.007  0.00  0.00    +0.069 C 
ENDBRANCH  78  79
ENDBRANCH  77  78
ENDBRANCH  57  77
ENDBRANCH  53  57
ENDBRANCH  52  54
BRANCH  52  81
ATOM     81  CB  ILE A   3      13.429  -0.285  -8.122  0.00  0.00    +0.027 C 
ATOM     82  CG2 ILE A   3      14.326  -0.214  -9.352  0.00  0.00    +0.002 C 
BRANCH  81  83
ATOM     83  CG1 ILE A   3      12.816   1.071  -7.773  0.00  0.00    +0.002 C 
ATOM     84  CD1 ILE A   3      13.760   1.987  -7.057  0.00  0.00    +0.000 C 
ENDBRANCH  81  83
ENDBRANCH  52  81
ENDBRANCH  48  52
ENDBRANCH  47  49
ENDBRANCH   1  47
TORSDOF 34
REMARK  Name = ../refined-set-2016/2p3a/2p3a_pocket.pdb
REMARK  231 active torsions:
REMARK  status: ('A' for Active; 'I' for Inactive)
REMARK    1  A    between atoms: _1  and  _3
REMARK    2  A    between atoms: _3  and  _4
REMARK    3  A    between atoms: _3  and  _6
REMARK    4  A    between atoms: _6  and  _7
REMARK    5  A    between atoms: _7  and  _8
REMARK    6  A    between atoms: _8  and  _9
REMARK    7  A    between atoms: _18  and  _20
REMARK    8  A    between atoms: _20  and  _21
REMARK    9  A    between atoms: _20  and  _23
REMARK   10  A    between atoms: _23  and  _24
REMARK   11  A    between atoms: _27  and  _29
REMARK   12  A    between atoms: _29  and  _30
REMARK   13  A    between atoms: _29  and  _32
REMARK   14  A    between atoms: _32  and  _33
REMARK   15  A    between atoms: _36  and  _38
REMARK   16  A    between atoms: _38  and  _39
REMARK   17  A    between atoms: _38  and  _41
REMARK   18  A    between atoms: _41  and  _42
REMARK   19  A    between atoms: _45  and  _47
REMARK   20  A    between atoms: _47  and  _48
REMARK   21  A    between atoms: _47  and  _50
REMARK   22  A    between atoms: _50  and  _51
REMARK   23  A    between atoms: _54  and  _56
REMARK   24  A    between atoms: _56  and  _57
REMARK   25  A    between atoms: _59  and  _61
REMARK   26  A    between atoms: _61  and  _62
REMARK   27  A    between atoms: _65  and  _67
REMARK   28  A    between atoms: _67  and  _68
REMARK   29  A    between atoms: _67  and  _70
REMARK   30  A    between atoms: _70  and  _71
REMARK   31  A    between atoms: _74  and  _76
REMARK   32  A    between atoms: _76  and  _77
REMARK   33  A    between atoms: _76  and  _79
REMARK   34  A    between atoms: _79  and  _80
REMARK   35  A    between atoms: _83  and  _85
REMARK   36  A    between atoms: _85  and  _86
REMARK   37  A    between atoms: _85  and  _88
REMARK   38  A    between atoms: _88  and  _89
REMARK   39  A    between atoms: _92  and  _94
REMARK   40  A    between atoms: _94  and  _95
REMARK   41  A    between atoms: _94  and  _97
REMARK   42  A    between atoms: _100  and  _102
REMARK   43  A    between atoms: _102  and  _103
REMARK   44  A    between atoms: _102  and  _105
REMARK   45  A    between atoms: _105  and  _106
REMARK   46  A    between atoms: _106  and  _107
REMARK   47  A    between atoms: _107  and  _108
REMARK   48  A    between atoms: _117  and  _119
REMARK   49  A    between atoms: _119  and  _120
REMARK   50  A    between atoms: _119  and  _122
REMARK   51  A    between atoms: _122  and  _123
REMARK   52  A    between atoms: _123  and  _124
REMARK   53  A    between atoms: _126  and  _128
REMARK   54  A    between atoms: _128  and  _129
REMARK   55  A    between atoms: _128  and  _131
REMARK   56  A    between atoms: _131  and  _132
REMARK   57  A    between atoms: _135  and  _137
REMARK   58  A    between atoms: _137  and  _138
REMARK   59  A    between atoms: _140  and  _142
REMARK   60  A    between atoms: _142  and  _143
REMARK   61  A    between atoms: _145  and  _147
REMARK   62  A    between atoms: _147  and  _148
REMARK   63  A    between atoms: _147  and  _150
REMARK   64  A    between atoms: _150  and  _151
REMARK   65  A    between atoms: _154  and  _156
REMARK   66  A    between atoms: _156  and  _157
REMARK   67  A    between atoms: _159  and  _161
REMARK   68  A    between atoms: _161  and  _162
REMARK   69  A    between atoms: _164  and  _166
REMARK   70  A    between atoms: _166  and  _167
REMARK   71  A    between atoms: _166  and  _169
REMARK   72  A    between atoms: _169  and  _170
REMARK   73  A    between atoms: _176  and  _178
REMARK   74  A    between atoms: _178  and  _179
REMARK   75  A    between atoms: _178  and  _181
REMARK   76  A    between atoms: _184  and  _186
REMARK   77  A    between atoms: _186  and  _187
REMARK   78  A    between atoms: _186  and  _189
REMARK   79  A    between atoms: _192  and  _194
REMARK   80  A    between atoms: _194  and  _195
REMARK   81  A    between atoms: _194  and  _197
REMARK   82  A    between atoms: _197  and  _198
REMARK   83  A    between atoms: _198  and  _199
REMARK   84  A    between atoms: _204  and  _206
REMARK   85  A    between atoms: _206  and  _207
REMARK   86  A    between atoms: _206  and  _209
REMARK   87  A    between atoms: _209  and  _210
REMARK   88  A    between atoms: _213  and  _215
REMARK   89  A    between atoms: _215  and  _216
REMARK   90  A    between atoms: _215  and  _218
REMARK   91  A    between atoms: _218  and  _219
REMARK   92  A    between atoms: _223  and  _224
REMARK   93  A    between atoms: _229  and  _231
REMARK   94  A    between atoms: _231  and  _232
REMARK   95  A    between atoms: _235  and  _237
REMARK   96  A    between atoms: _237  and  _238
REMARK   97  A    between atoms: _237  and  _240
REMARK   98  A    between atoms: _240  and  _241
REMARK   99  A    between atoms: _246  and  _248
REMARK  100  A    between atoms: _248  and  _249
REMARK  101  A    between atoms: _248  and  _251
REMARK  102  A    between atoms: _251  and  _252
REMARK  103  A    between atoms: _255  and  _257
REMARK  104  A    between atoms: _257  and  _258
REMARK  105  A    between atoms: _257  and  _260
REMARK  106  A    between atoms: _260  and  _261
REMARK  107  A    between atoms: _264  and  _266
REMARK  108  A    between atoms: _266  and  _267
REMARK  109  A    between atoms: _269  and  _271
REMARK  110  A    between atoms: _271  and  _272
REMARK  111  A    between atoms: _271  and  _274
REMARK  112  A    between atoms: _274  and  _275
REMARK  113  A    between atoms: _275  and  _276
REMARK  114  A    between atoms: _276  and  _277
REMARK  115  A    between atoms: _286  and  _288
REMARK  116  A    between atoms: _288  and  _289
REMARK  117  A    between atoms: _288  and  _291
REMARK  118  A    between atoms: _291  and  _292
REMARK  119  A    between atoms: _292  and  _293
REMARK  120  A    between atoms: _293  and  _294
REMARK  121  A    between atoms: _303  and  _305
REMARK  122  A    between atoms: _305  and  _306
REMARK  123  A    between atoms: _305  and  _308
REMARK  124  A    between atoms: _308  and  _309
REMARK  125  A    between atoms: _312  and  _314
REMARK  126  A    between atoms: _314  and  _315
REMARK  127  A    between atoms: _314  and  _317
REMARK  128  A    between atoms: _317  and  _318
REMARK  129  A    between atoms: _321  and  _323
REMARK  130  A    between atoms: _323  and  _324
REMARK  131  A    between atoms: _323  and  _326
REMARK  132  A    between atoms: _326  and  _327
REMARK  133  A    between atoms: _330  and  _332
REMARK  134  A    between atoms: _332  and  _333
REMARK  135  A    between atoms: _332  and  _335
REMARK  136  A    between atoms: _335  and  _336
REMARK  137  A    between atoms: _339  and  _341
REMARK  138  A    between atoms: _341  and  _342
REMARK  139  A    between atoms: _344  and  _346
REMARK  140  A    between atoms: _346  and  _347
REMARK  141  A    between atoms: _350  and  _352
REMARK  142  A    between atoms: _352  and  _353
REMARK  143  A    between atoms: _352  and  _355
REMARK  144  A    between atoms: _355  and  _356
REMARK  145  A    between atoms: _359  and  _361
REMARK  146  A    between atoms: _361  and  _362
REMARK  147  A    between atoms: _361  and  _364
REMARK  148  A    between atoms: _364  and  _365
REMARK  149  A    between atoms: _368  and  _370
REMARK  150  A    between atoms: _370  and  _371
REMARK  151  A    between atoms: _370  and  _373
REMARK  152  A    between atoms: _373  and  _374
REMARK  153  A    between atoms: _377  and  _379
REMARK  154  A    between atoms: _379  and  _380
REMARK  155  A    between atoms: _379  and  _382
REMARK  156  A    between atoms: _385  and  _387
REMARK  157  A    between atoms: _387  and  _388
REMARK  158  A    between atoms: _387  and  _390
REMARK  159  A    between atoms: _390  and  _391
REMARK  160  A    between atoms: _394  and  _396
REMARK  161  A    between atoms: _396  and  _397
REMARK  162  A    between atoms: _396  and  _399
REMARK  163  A    between atoms: _399  and  _400
REMARK  164  A    between atoms: _400  and  _401
REMARK  165  A    between atoms: _401  and  _402
REMARK  166  A    between atoms: _411  and  _413
REMARK  167  A    between atoms: _413  and  _414
REMARK  168  A    between atoms: _413  and  _416
REMARK  169  A    between atoms: _416  and  _417
REMARK  170  A    between atoms: _417  and  _418
REMARK  171  A    between atoms: _420  and  _422
REMARK  172  A    between atoms: _422  and  _423
REMARK  173  A    between atoms: _422  and  _425
REMARK  174  A    between atoms: _425  and  _426
REMARK  175  A    between atoms: _429  and  _431
REMARK  176  A    between atoms: _431  and  _432
REMARK  177  A    between atoms: _434  and  _436
REMARK  178  A    between atoms: _436  and  _437
REMARK  179  A    between atoms: _439  and  _441
REMARK  180  A    between atoms: _441  and  _442
REMARK  181  A    between atoms: _441  and  _444
REMARK  182  A    between atoms: _444  and  _445
REMARK  183  A    between atoms: _448  and  _450
REMARK  184  A    between atoms: _450  and  _451
REMARK  185  A    between atoms: _453  and  _455
REMARK  186  A    between atoms: _455  and  _456
REMARK  187  A    between atoms: _458  and  _460
REMARK  188  A    between atoms: _460  and  _461
REMARK  189  A    between atoms: _460  and  _463
REMARK  190  A    between atoms: _463  and  _464
REMARK  191  A    between atoms: _470  and  _472
REMARK  192  A    between atoms: _472  and  _473
REMARK  193  A    between atoms: _472  and  _475
REMARK  194  A    between atoms: _478  and  _480
REMARK  195  A    between atoms: _480  and  _481
REMARK  196  A    between atoms: _480  and  _483
REMARK  197  A    between atoms: _486  and  _488
REMARK  198  A    between atoms: _488  and  _489
REMARK  199  A    between atoms: _488  and  _491
REMARK  200  A    between atoms: _491  and  _492
REMARK  201  A    between atoms: _495  and  _497
REMARK  202  A    between atoms: _497  and  _498
REMARK  203  A    between atoms: _497  and  _500
REMARK  204  A    between atoms: _500  and  _501
REMARK  205  A    between atoms: _505  and  _506
REMARK  206  A    between atoms: _511  and  _513
REMARK  207  A    between atoms: _513  and  _514
REMARK  208  A    between atoms: _517  and  _519
REMARK  209  A    between atoms: _519  and  _520
REMARK  210  A    between atoms: _519  and  _522
REMARK  211  A    between atoms: _522  and  _523
REMARK  212  A    between atoms: _528  and  _530
REMARK  213  A    between atoms: _530  and  _531
REMARK  214  A    between atoms: _530  and  _533
REMARK  215  A    between atoms: _533  and  _534
REMARK  216  A    between atoms: _537  and  _539
REMARK  217  A    between atoms: _539  and  _540
REMARK  218  A    between atoms: _539  and  _542
REMARK  219  A    between atoms: _542  and  _543
REMARK  220  A    between atoms: _546  and  _548
REMARK  221  A    between atoms: _548  and  _549
REMARK  222  A    between atoms: _551  and  _553
REMARK  223  A    between atoms: _553  and  _554
REMARK  224  A    between atoms: _553  and  _556
REMARK  225  A    between atoms: _556  and  _557
REMARK  226  A    between atoms: _557  and  _558
REMARK  227  A    between atoms: _558  and  _559
REMARK  228  A    between atoms: _568  and  _570
REMARK  229  A    between atoms: _570  and  _571
REMARK  230  A    between atoms: _570  and  _573
REMARK  231  A    between atoms: _573  and  _574
REMARK                            x       y       z     vdW  Elec       q    Type
REMARK                         _______ _______ _______ _____ _____    ______ ____
ROOT
ATOM      1  CA  VAL A   1      10.541   4.392 -12.210  0.00  0.00    +0.133 C 
ENDROOT
BRANCH   1   2
ATOM      2  CB  VAL A   1      11.915   3.993 -11.592  0.00  0.00    +0.023 C 
ATOM      3  CG2 VAL A   1      11.857   3.999 -10.069  0.00  0.00    +0.002 C 
ATOM      4  CG1 VAL A   1      12.381   2.662 -12.119  0.00  0.00    +0.002 C 
ENDBRANCH   1   2
BRANCH   1   5
ATOM      5  N   VAL A   1       9.500   3.459 -11.872  0.00  0.00    -0.239 NA
ATOM      6  H   VAL A   1       9.454   2.549 -12.374  0.00  0.00    +0.142 HD
ENDBRANCH   1   5
BRANCH   1   7
ATOM      7  C   VAL A   1      10.687   4.465 -13.708  0.00  0.00    +0.224 C 
ATOM      8  O   VAL A   1      10.175   3.618 -14.442  0.00  0.00    -0.287 OA
ENDBRANCH   1   7
TORSDOF 3
REMARK  Name = ../refined-set-2016/2p3a/2p3a_pocket.pdb
REMARK  231 active torsions:
REMARK  status: ('A' for Active; 'I' for Inactive)
REMARK    1  A    between atoms: _1  and  _3
REMARK    2  A    between atoms: _3  and  _4
REMARK    3  A    between atoms: _3  and  _6
REMARK    4  A    between atoms: _6  and  _7
REMARK    5  A    between atoms: _7  and  _8
REMARK    6  A    between atoms: _8  and  _9
REMARK    7  A    between atoms: _18  and  _20
REMARK    8  A    between atoms: _20  and  _21
REMARK    9  A    between atoms: _20  and  _23
REMARK   10  A    between atoms: _23  and  _24
REMARK   11  A    between atoms: _27  and  _29
REMARK   12  A    between atoms: _29  and  _30
REMARK   13  A    between atoms: _29  and  _32
REMARK   14  A    between atoms: _32  and  _33
REMARK   15  A    between atoms: _36  and  _38
REMARK   16  A    between atoms: _38  and  _39
REMARK   17  A    between atoms: _38  and  _41
REMARK   18  A    between atoms: _41  and  _42
REMARK   19  A    between atoms: _45  and  _47
REMARK   20  A    between atoms: _47  and  _48
REMARK   21  A    between atoms: _47  and  _50
REMARK   22  A    between atoms: _50  and  _51
REMARK   23  A    between atoms: _54  and  _56
REMARK   24  A    between atoms: _56  and  _57
REMARK   25  A    between atoms: _59  and  _61
REMARK   26  A    between atoms: _61  and  _62
REMARK   27  A    between atoms: _65  and  _67
REMARK   28  A    between atoms: _67  and  _68
REMARK   29  A    between atoms: _67  and  _70
REMARK   30  A    between atoms: _70  and  _71
REMARK   31  A    between atoms: _74  and  _76
REMARK   32  A    between atoms: _76  and  _77
REMARK   33  A    between atoms: _76  and  _79
REMARK   34  A    between atoms: _79  and  _80
REMARK   35  A    between atoms: _83  and  _85
REMARK   36  A    between atoms: _85  and  _86
REMARK   37  A    between atoms: _85  and  _88
REMARK   38  A    between atoms: _88  and  _89
REMARK   39  A    between atoms: _92  and  _94
REMARK   40  A    between atoms: _94  and  _95
REMARK   41  A    between atoms: _94  and  _97
REMARK   42  A    between atoms: _100  and  _102
REMARK   43  A    between atoms: _102  and  _103
REMARK   44  A    between atoms: _102  and  _105
REMARK   45  A    between atoms: _105  and  _106
REMARK   46  A    between atoms: _106  and  _107
REMARK   47  A    between atoms: _107  and  _108
REMARK   48  A    between atoms: _117  and  _119
REMARK   49  A    between atoms: _119  and  _120
REMARK   50  A    between atoms: _119  and  _122
REMARK   51  A    between atoms: _122  and  _123
REMARK   52  A    between atoms: _123  and  _124
REMARK   53  A    between atoms: _126  and  _128
REMARK   54  A    between atoms: _128  and  _129
REMARK   55  A    between atoms: _128  and  _131
REMARK   56  A    between atoms: _131  and  _132
REMARK   57  A    between atoms: _135  and  _137
REMARK   58  A    between atoms: _137  and  _138
REMARK   59  A    between atoms: _140  and  _142
REMARK   60  A    between atoms: _142  and  _143
REMARK   61  A    between atoms: _145  and  _147
REMARK   62  A    between atoms: _147  and  _148
REMARK   63  A    between atoms: _147  and  _150
REMARK   64  A    between atoms: _150  and  _151
REMARK   65  A    between atoms: _154  and  _156
REMARK   66  A    between atoms: _156  and  _157
REMARK   67  A    between atoms: _159  and  _161
REMARK   68  A    between atoms: _161  and  _162
REMARK   69  A    between atoms: _164  and  _166
REMARK   70  A    between atoms: _166  and  _167
REMARK   71  A    between atoms: _166  and  _169
REMARK   72  A    between atoms: _169  and  _170
REMARK   73  A    between atoms: _176  and  _178
REMARK   74  A    between atoms: _178  and  _179
REMARK   75  A    between atoms: _178  and  _181
REMARK   76  A    between atoms: _184  and  _186
REMARK   77  A    between atoms: _186  and  _187
REMARK   78  A    between atoms: _186  and  _189
REMARK   79  A    between atoms: _192  and  _194
REMARK   80  A    between atoms: _194  and  _195
REMARK   81  A    between atoms: _194  and  _197
REMARK   82  A    between atoms: _197  and  _198
REMARK   83  A    between atoms: _198  and  _199
REMARK   84  A    between atoms: _204  and  _206
REMARK   85  A    between atoms: _206  and  _207
REMARK   86  A    between atoms: _206  and  _209
REMARK   87  A    between atoms: _209  and  _210
REMARK   88  A    between atoms: _213  and  _215
REMARK   89  A    between atoms: _215  and  _216
REMARK   90  A    between atoms: _215  and  _218
REMARK   91  A    between atoms: _218  and  _219
REMARK   92  A    between atoms: _223  and  _224
REMARK   93  A    between atoms: _229  and  _231
REMARK   94  A    between atoms: _231  and  _232
REMARK   95  A    between atoms: _235  and  _237
REMARK   96  A    between atoms: _237  and  _238
REMARK   97  A    between atoms: _237  and  _240
REMARK   98  A    between atoms: _240  and  _241
REMARK   99  A    between atoms: _246  and  _248
REMARK  100  A    between atoms: _248  and  _249
REMARK  101  A    between atoms: _248  and  _251
REMARK  102  A    between atoms: _251  and  _252
REMARK  103  A    between atoms: _255  and  _257
REMARK  104  A    between atoms: _257  and  _258
REMARK  105  A    between atoms: _257  and  _260
REMARK  106  A    between atoms: _260  and  _261
REMARK  107  A    between atoms: _264  and  _266
REMARK  108  A    between atoms: _266  and  _267
REMARK  109  A    between atoms: _269  and  _271
REMARK  110  A    between atoms: _271  and  _272
REMARK  111  A    between atoms: _271  and  _274
REMARK  112  A    between atoms: _274  and  _275
REMARK  113  A    between atoms: _275  and  _276
REMARK  114  A    between atoms: _276  and  _277
REMARK  115  A    between atoms: _286  and  _288
REMARK  116  A    between atoms: _288  and  _289
REMARK  117  A    between atoms: _288  and  _291
REMARK  118  A    between atoms: _291  and  _292
REMARK  119  A    between atoms: _292  and  _293
REMARK  120  A    between atoms: _293  and  _294
REMARK  121  A    between atoms: _303  and  _305
REMARK  122  A    between atoms: _305  and  _306
REMARK  123  A    between atoms: _305  and  _308
REMARK  124  A    between atoms: _308  and  _309
REMARK  125  A    between atoms: _312  and  _314
REMARK  126  A    between atoms: _314  and  _315
REMARK  127  A    between atoms: _314  and  _317
REMARK  128  A    between atoms: _317  and  _318
REMARK  129  A    between atoms: _321  and  _323
REMARK  130  A    between atoms: _323  and  _324
REMARK  131  A    between atoms: _323  and  _326
REMARK  132  A    between atoms: _326  and  _327
REMARK  133  A    between atoms: _330  and  _332
REMARK  134  A    between atoms: _332  and  _333
REMARK  135  A    between atoms: _332  and  _335
REMARK  136  A    between atoms: _335  and  _336
REMARK  137  A    between atoms: _339  and  _341
REMARK  138  A    between atoms: _341  and  _342
REMARK  139  A    between atoms: _344  and  _346
REMARK  140  A    between atoms: _346  and  _347
REMARK  141  A    between atoms: _350  and  _352
REMARK  142  A    between atoms: _352  and  _353
REMARK  143  A    between atoms: _352  and  _355
REMARK  144  A    between atoms: _355  and  _356
REMARK  145  A    between atoms: _359  and  _361
REMARK  146  A    between atoms: _361  and  _362
REMARK  147  A    between atoms: _361  and  _364
REMARK  148  A    between atoms: _364  and  _365
REMARK  149  A    between atoms: _368  and  _370
REMARK  150  A    between atoms: _370  and  _371
REMARK  151  A    between atoms: _370  and  _373
REMARK  152  A    between atoms: _373  and  _374
REMARK  153  A    between atoms: _377  and  _379
REMARK  154  A    between atoms: _379  and  _380
REMARK  155  A    between atoms: _379  and  _382
REMARK  156  A    between atoms: _385  and  _387
REMARK  157  A    between atoms: _387  and  _388
REMARK  158  A    between atoms: _387  and  _390
REMARK  159  A    between atoms: _390  and  _391
REMARK  160  A    between atoms: _394  and  _396
REMARK  161  A    between atoms: _396  and  _397
REMARK  162  A    between atoms: _396  and  _399
REMARK  163  A    between atoms: _399  and  _400
REMARK  164  A    between atoms: _400  and  _401
REMARK  165  A    between atoms: _401  and  _402
REMARK  166  A    between atoms: _411  and  _413
REMARK  167  A    between atoms: _413  and  _414
REMARK  168  A    between atoms: _413  and  _416
REMARK  169  A    between atoms: _416  and  _417
REMARK  170  A    between atoms: _417  and  _418
REMARK  171  A    between atoms: _420  and  _422
REMARK  172  A    between atoms: _422  and  _423
REMARK  173  A    between atoms: _422  and  _425
REMARK  174  A    between atoms: _425  and  _426
REMARK  175  A    between atoms: _429  and  _431
REMARK  176  A    between atoms: _431  and  _432
REMARK  177  A    between atoms: _434  and  _436
REMARK  178  A    between atoms: _436  and  _437
REMARK  179  A    between atoms: _439  and  _441
REMARK  180  A    between atoms: _441  and  _442
REMARK  181  A    between atoms: _441  and  _444
REMARK  182  A    between atoms: _444  and  _445
REMARK  183  A    between atoms: _448  and  _450
REMARK  184  A    between atoms: _450  and  _451
REMARK  185  A    between atoms: _453  and  _455
REMARK  186  A    between atoms: _455  and  _456
REMARK  187  A    between atoms: _458  and  _460
REMARK  188  A    between atoms: _460  and  _461
REMARK  189  A    between atoms: _460  and  _463
REMARK  190  A    between atoms: _463  and  _464
REMARK  191  A    between atoms: _470  and  _472
REMARK  192  A    between atoms: _472  and  _473
REMARK  193  A    between atoms: _472  and  _475
REMARK  194  A    between atoms: _478  and  _480
REMARK  195  A    between atoms: _480  and  _481
REMARK  196  A    between atoms: _480  and  _483
REMARK  197  A    between atoms: _486  and  _488
REMARK  198  A    between atoms: _488  and  _489
REMARK  199  A    between atoms: _488  and  _491
REMARK  200  A    between atoms: _491  and  _492
REMARK  201  A    between atoms: _495  and  _497
REMARK  202  A    between atoms: _497  and  _498
REMARK  203  A    between atoms: _497  and  _500
REMARK  204  A    between atoms: _500  and  _501
REMARK  205  A    between atoms: _505  and  _506
REMARK  206  A    between atoms: _511  and  _513
REMARK  207  A    between atoms: _513  and  _514
REMARK  208  A    between atoms: _517  and  _519
REMARK  209  A    between atoms: _519  and  _520
REMARK  210  A    between atoms: _519  and  _522
REMARK  211  A    between atoms: _522  and  _523
REMARK  212  A    between atoms: _528  and  _530
REMARK  213  A    between atoms: _530  and  _531
REMARK  214  A    between atoms: _530  and  _533
REMARK  215  A    between atoms: _533  and  _534
REMARK  216  A    between atoms: _537  and  _539
REMARK  217  A    between atoms: _539  and  _540
REMARK  218  A    between atoms: _539  and  _542
REMARK  219  A    between atoms: _542  and  _543
REMARK  220  A    between atoms: _546  and  _548
REMARK  221  A    between atoms: _548  and  _549
REMARK  222  A    between atoms: _551  and  _553
REMARK  223  A    between atoms: _553  and  _554
REMARK  224  A    between atoms: _553  and  _556
REMARK  225  A    between atoms: _556  and  _557
REMARK  226  A    between atoms: _557  and  _558
REMARK  227  A    between atoms: _558  and  _559
REMARK  228  A    between atoms: _568  and  _570
REMARK  229  A    between atoms: _570  and  _571
REMARK  230  A    between atoms: _570  and  _573
REMARK  231  A    between atoms: _573  and  _574
REMARK                            x       y       z     vdW  Elec       q    Type
REMARK                         _______ _______ _______ _____ _____    ______ ____
ROOT
ATOM      1  CA  LEU A   1      16.323   5.166 -12.824  0.00  0.00    +0.133 C 
ENDROOT
BRANCH   1   2
ATOM      2  N   LEU A   1      17.737   5.249 -13.064  0.00  0.00    -0.239 NA
ATOM      3  H   LEU A   1      18.391   5.043 -12.282  0.00  0.00    +0.142 HD
ENDBRANCH   1   2
BRANCH   1   4
ATOM      4  C   LEU A   1      15.840   6.452 -12.160  0.00  0.00    +0.224 C 
ATOM      5  O   LEU A   1      16.507   7.028 -11.278  0.00  0.00    -0.287 OA
ENDBRANCH   1   4
BRANCH   1   6
ATOM      6  CB  LEU A   1      15.992   3.948 -11.969  0.00  0.00    +0.025 C 
BRANCH   6   7
ATOM      7  CG  LEU A   1      16.618   2.612 -12.395  0.00  0.00    +0.002 C 
ATOM      8  CD2 LEU A   1      16.129   1.532 -11.452  0.00  0.00    +0.000 C 
ATOM      9  CD1 LEU A   1      16.300   2.237 -13.838  0.00  0.00    +0.000 C 
ENDBRANCH   6   7
ENDBRANCH   1   6
TORSDOF 4
REMARK  Name = ../refined-set-2016/2p3a/2p3a_pocket.pdb
REMARK  231 active torsions:
REMARK  status: ('A' for Active; 'I' for Inactive)
REMARK    1  A    between atoms: _1  and  _3
REMARK    2  A    between atoms: _3  and  _4
REMARK    3  A    between atoms: _3  and  _6
REMARK    4  A    between atoms: _6  and  _7
REMARK    5  A    between atoms: _7  and  _8
REMARK    6  A    between atoms: _8  and  _9
REMARK    7  A    between atoms: _18  and  _20
REMARK    8  A    between atoms: _20  and  _21
REMARK    9  A    between atoms: _20  and  _23
REMARK   10  A    between atoms: _23  and  _24
REMARK   11  A    between atoms: _27  and  _29
REMARK   12  A    between atoms: _29  and  _30
REMARK   13  A    between atoms: _29  and  _32
REMARK   14  A    between atoms: _32  and  _33
REMARK   15  A    between atoms: _36  and  _38
REMARK   16  A    between atoms: _38  and  _39
REMARK   17  A    between atoms: _38  and  _41
REMARK   18  A    between atoms: _41  and  _42
REMARK   19  A    between atoms: _45  and  _47
REMARK   20  A    between atoms: _47  and  _48
REMARK   21  A    between atoms: _47  and  _50
REMARK   22  A    between atoms: _50  and  _51
REMARK   23  A    between atoms: _54  and  _56
REMARK   24  A    between atoms: _56  and  _57
REMARK   25  A    between atoms: _59  and  _61
REMARK   26  A    between atoms: _61  and  _62
REMARK   27  A    between atoms: _65  and  _67
REMARK   28  A    between atoms: _67  and  _68
REMARK   29  A    between atoms: _67  and  _70
REMARK   30  A    between atoms: _70  and  _71
REMARK   31  A    between atoms: _74  and  _76
REMARK   32  A    between atoms: _76  and  _77
REMARK   33  A    between atoms: _76  and  _79
REMARK   34  A    between atoms: _79  and  _80
REMARK   35  A    between atoms: _83  and  _85
REMARK   36  A    between atoms: _85  and  _86
REMARK   37  A    between atoms: _85  and  _88
REMARK   38  A    between atoms: _88  and  _89
REMARK   39  A    between atoms: _92  and  _94
REMARK   40  A    between atoms: _94  and  _95
REMARK   41  A    between atoms: _94  and  _97
REMARK   42  A    between atoms: _100  and  _102
REMARK   43  A    between atoms: _102  and  _103
REMARK   44  A    between atoms: _102  and  _105
REMARK   45  A    between atoms: _105  and  _106
REMARK   46  A    between atoms: _106  and  _107
REMARK   47  A    between atoms: _107  and  _108
REMARK   48  A    between atoms: _117  and  _119
REMARK   49  A    between atoms: _119  and  _120
REMARK   50  A    between atoms: _119  and  _122
REMARK   51  A    between atoms: _122  and  _123
REMARK   52  A    between atoms: _123  and  _124
REMARK   53  A    between atoms: _126  and  _128
REMARK   54  A    between atoms: _128  and  _129
REMARK   55  A    between atoms: _128  and  _131
REMARK   56  A    between atoms: _131  and  _132
REMARK   57  A    between atoms: _135  and  _137
REMARK   58  A    between atoms: _137  and  _138
REMARK   59  A    between atoms: _140  and  _142
REMARK   60  A    between atoms: _142  and  _143
REMARK   61  A    between atoms: _145  and  _147
REMARK   62  A    between atoms: _147  and  _148
REMARK   63  A    between atoms: _147  and  _150
REMARK   64  A    between atoms: _150  and  _151
REMARK   65  A    between atoms: _154  and  _156
REMARK   66  A    between atoms: _156  and  _157
REMARK   67  A    between atoms: _159  and  _161
REMARK   68  A    between atoms: _161  and  _162
REMARK   69  A    between atoms: _164  and  _166
REMARK   70  A    between atoms: _166  and  _167
REMARK   71  A    between atoms: _166  and  _169
REMARK   72  A    between atoms: _169  and  _170
REMARK   73  A    between atoms: _176  and  _178
REMARK   74  A    between atoms: _178  and  _179
REMARK   75  A    between atoms: _178  and  _181
REMARK   76  A    between atoms: _184  and  _186
REMARK   77  A    between atoms: _186  and  _187
REMARK   78  A    between atoms: _186  and  _189
REMARK   79  A    between atoms: _192  and  _194
REMARK   80  A    between atoms: _194  and  _195
REMARK   81  A    between atoms: _194  and  _197
REMARK   82  A    between atoms: _197  and  _198
REMARK   83  A    between atoms: _198  and  _199
REMARK   84  A    between atoms: _204  and  _206
REMARK   85  A    between atoms: _206  and  _207
REMARK   86  A    between atoms: _206  and  _209
REMARK   87  A    between atoms: _209  and  _210
REMARK   88  A    between atoms: _213  and  _215
REMARK   89  A    between atoms: _215  and  _216
REMARK   90  A    between atoms: _215  and  _218
REMARK   91  A    between atoms: _218  and  _219
REMARK   92  A    between atoms: _223  and  _224
REMARK   93  A    between atoms: _229  and  _231
REMARK   94  A    between atoms: _231  and  _232
REMARK   95  A    between atoms: _235  and  _237
REMARK   96  A    between atoms: _237  and  _238
REMARK   97  A    between atoms: _237  and  _240
REMARK   98  A    between atoms: _240  and  _241
REMARK   99  A    between atoms: _246  and  _248
REMARK  100  A    between atoms: _248  and  _249
REMARK  101  A    between atoms: _248  and  _251
REMARK  102  A    between atoms: _251  and  _252
REMARK  103  A    between atoms: _255  and  _257
REMARK  104  A    between atoms: _257  and  _258
REMARK  105  A    between atoms: _257  and  _260
REMARK  106  A    between atoms: _260  and  _261
REMARK  107  A    between atoms: _264  and  _266
REMARK  108  A    between atoms: _266  and  _267
REMARK  109  A    between atoms: _269  and  _271
REMARK  110  A    between atoms: _271  and  _272
REMARK  111  A    between atoms: _271  and  _274
REMARK  112  A    between atoms: _274  and  _275
REMARK  113  A    between atoms: _275  and  _276
REMARK  114  A    between atoms: _276  and  _277
REMARK  115  A    between atoms: _286  and  _288
REMARK  116  A    between atoms: _288  and  _289
REMARK  117  A    between atoms: _288  and  _291
REMARK  118  A    between atoms: _291  and  _292
REMARK  119  A    between atoms: _292  and  _293
REMARK  120  A    between atoms: _293  and  _294
REMARK  121  A    between atoms: _303  and  _305
REMARK  122  A    between atoms: _305  and  _306
REMARK  123  A    between atoms: _305  and  _308
REMARK  124  A    between atoms: _308  and  _309
REMARK  125  A    between atoms: _312  and  _314
REMARK  126  A    between atoms: _314  and  _315
REMARK  127  A    between atoms: _314  and  _317
REMARK  128  A    between atoms: _317  and  _318
REMARK  129  A    between atoms: _321  and  _323
REMARK  130  A    between atoms: _323  and  _324
REMARK  131  A    between atoms: _323  and  _326
REMARK  132  A    between atoms: _326  and  _327
REMARK  133  A    between atoms: _330  and  _332
REMARK  134  A    between atoms: _332  and  _333
REMARK  135  A    between atoms: _332  and  _335
REMARK  136  A    between atoms: _335  and  _336
REMARK  137  A    between atoms: _339  and  _341
REMARK  138  A    between atoms: _341  and  _342
REMARK  139  A    between atoms: _344  and  _346
REMARK  140  A    between atoms: _346  and  _347
REMARK  141  A    between atoms: _350  and  _352
REMARK  142  A    between atoms: _352  and  _353
REMARK  143  A    between atoms: _352  and  _355
REMARK  144  A    between atoms: _355  and  _356
REMARK  145  A    between atoms: _359  and  _361
REMARK  146  A    between atoms: _361  and  _362
REMARK  147  A    between atoms: _361  and  _364
REMARK  148  A    between atoms: _364  and  _365
REMARK  149  A    between atoms: _368  and  _370
REMARK  150  A    between atoms: _370  and  _371
REMARK  151  A    between atoms: _370  and  _373
REMARK  152  A    between atoms: _373  and  _374
REMARK  153  A    between atoms: _377  and  _379
REMARK  154  A    between atoms: _379  and  _380
REMARK  155  A    between atoms: _379  and  _382
REMARK  156  A    between atoms: _385  and  _387
REMARK  157  A    between atoms: _387  and  _388
REMARK  158  A    between atoms: _387  and  _390
REMARK  159  A    between atoms: _390  and  _391
REMARK  160  A    between atoms: _394  and  _396
REMARK  161  A    between atoms: _396  and  _397
REMARK  162  A    between atoms: _396  and  _399
REMARK  163  A    between atoms: _399  and  _400
REMARK  164  A    between atoms: _400  and  _401
REMARK  165  A    between atoms: _401  and  _402
REMARK  166  A    between atoms: _411  and  _413
REMARK  167  A    between atoms: _413  and  _414
REMARK  168  A    between atoms: _413  and  _416
REMARK  169  A    between atoms: _416  and  _417
REMARK  170  A    between atoms: _417  and  _418
REMARK  171  A    between atoms: _420  and  _422
REMARK  172  A    between atoms: _422  and  _423
REMARK  173  A    between atoms: _422  and  _425
REMARK  174  A    between atoms: _425  and  _426
REMARK  175  A    between atoms: _429  and  _431
REMARK  176  A    between atoms: _431  and  _432
REMARK  177  A    between atoms: _434  and  _436
REMARK  178  A    between atoms: _436  and  _437
REMARK  179  A    between atoms: _439  and  _441
REMARK  180  A    between atoms: _441  and  _442
REMARK  181  A    between atoms: _441  and  _444
REMARK  182  A    between atoms: _444  and  _445
REMARK  183  A    between atoms: _448  and  _450
REMARK  184  A    between atoms: _450  and  _451
REMARK  185  A    between atoms: _453  and  _455
REMARK  186  A    between atoms: _455  and  _456
REMARK  187  A    between atoms: _458  and  _460
REMARK  188  A    between atoms: _460  and  _461
REMARK  189  A    between atoms: _460  and  _463
REMARK  190  A    between atoms: _463  and  _464
REMARK  191  A    between atoms: _470  and  _472
REMARK  192  A    between atoms: _472  and  _473
REMARK  193  A    between atoms: _472  and  _475
REMARK  194  A    between atoms: _478  and  _480
REMARK  195  A    between atoms: _480  and  _481
REMARK  196  A    between atoms: _480  and  _483
REMARK  197  A    between atoms: _486  and  _488
REMARK  198  A    between atoms: _488  and  _489
REMARK  199  A    between atoms: _488  and  _491
REMARK  200  A    between atoms: _491  and  _492
REMARK  201  A    between atoms: _495  and  _497
REMARK  202  A    between atoms: _497  and  _498
REMARK  203  A    between atoms: _497  and  _500
REMARK  204  A    between atoms: _500  and  _501
REMARK  205  A    between atoms: _505  and  _506
REMARK  206  A    between atoms: _511  and  _513
REMARK  207  A    between atoms: _513  and  _514
REMARK  208  A    between atoms: _517  and  _519
REMARK  209  A    between atoms: _519  and  _520
REMARK  210  A    between atoms: _519  and  _522
REMARK  211  A    between atoms: _522  and  _523
REMARK  212  A    between atoms: _528  and  _530
REMARK  213  A    between atoms: _530  and  _531
REMARK  214  A    between atoms: _530  and  _533
REMARK  215  A    between atoms: _533  and  _534
REMARK  216  A    between atoms: _537  and  _539
REMARK  217  A    between atoms: _539  and  _540
REMARK  218  A    between atoms: _539  and  _542
REMARK  219  A    between atoms: _542  and  _543
REMARK  220  A    between atoms: _546  and  _548
REMARK  221  A    between atoms: _548  and  _549
REMARK  222  A    between atoms: _551  and  _553
REMARK  223  A    between atoms: _553  and  _554
REMARK  224  A    between atoms: _553  and  _556
REMARK  225  A    between atoms: _556  and  _557
REMARK  226  A    between atoms: _557  and  _558
REMARK  227  A    between atoms: _558  and  _559
REMARK  228  A    between atoms: _568  and  _570
REMARK  229  A    between atoms: _570  and  _571
REMARK  230  A    between atoms: _570  and  _573
REMARK  231  A    between atoms: _573  and  _574
REMARK                            x       y       z     vdW  Elec       q    Type
REMARK                         _______ _______ _______ _____ _____    ______ ____
ROOT
ATOM      1  C   ILE A   5      21.911   6.008  -5.998  0.00  0.00    +0.241 C 
ATOM      2  N   ILE A   6      23.203   5.891  -5.719  0.00  0.00    -0.297 N 
ATOM      3  H   ILE A   6      23.555   6.164  -4.779  0.00  0.00    +0.150 HD
ATOM      4  O   ILE A   5      21.421   5.840  -7.134  0.00  0.00    -0.273 OA
ENDROOT
BRANCH   2   5
ATOM      5  CA  ILE A   6      24.136   5.380  -6.724  0.00  0.00    +0.149 C 
BRANCH   5   6
ATOM      6  C   ILE A   6      24.334   3.915  -6.468  0.00  0.00    +0.241 C 
ATOM      7  O   ILE A   6      24.845   3.521  -5.414  0.00  0.00    -0.273 OA
ATOM      8  N   GLY A   7      23.881   3.108  -7.402  0.00  0.00    -0.295 N 
ATOM      9  H   GLY A   7      23.479   3.507  -8.274  0.00  0.00    +0.150 HD
BRANCH   8  10
ATOM     10  CA  GLY A   7      23.934   1.672  -7.232  0.00  0.00    +0.176 C 
BRANCH  10  11
ATOM     11  C   GLY A   7      25.172   1.084  -7.801  0.00  0.00    +0.243 C 
ATOM     12  N   ARG A   8      25.254  -0.236  -7.707  0.00  0.00    -0.297 N 
ATOM     13  H   ARG A   8      24.442  -0.768  -7.334  0.00  0.00    +0.150 HD
ATOM     14  O   GLY A   7      26.074   1.797  -8.253  0.00  0.00    -0.273 OA
BRANCH  12  15
ATOM     15  CA  ARG A   8      26.434  -0.952  -8.106  0.00  0.00    +0.149 C 
BRANCH  15  16
ATOM     16  C   ARG A   8      26.703  -0.793  -9.566  0.00  0.00    +0.241 C 
ATOM     17  O   ARG A   8      27.863  -0.807  -9.966  0.00  0.00    -0.273 OA
ATOM     18  N   ASN A   9      25.642  -0.563 -10.348  0.00  0.00    -0.298 N 
ATOM     19  H   ASN A   9      24.695  -0.498  -9.924  0.00  0.00    +0.150 HD
BRANCH  18  20
ATOM     20  CA  ASN A   9      25.798  -0.404 -11.776  0.00  0.00    +0.146 C 
BRANCH  20  21
ATOM     21  C   ASN A   9      26.772   0.712 -12.135  0.00  0.00    +0.227 C 
ATOM     22  O   ASN A   9      27.506   0.596 -13.102  0.00  0.00    -0.286 OA
ENDBRANCH  20  21
BRANCH  20  23
ATOM     23  CB  ASN A   9      24.455  -0.220 -12.464  0.00  0.00    +0.112 C 
BRANCH  23  24
ATOM     24  CG  ASN A   9      23.871   1.138 -12.262  0.00  0.00    +0.222 C 
ATOM     25  OD1 ASN A   9      23.636   1.561 -11.129  0.00  0.00    -0.275 OA
ATOM     26  ND2 ASN A   9      23.586   1.829 -13.367  0.00  0.00    -0.329 N 
ATOM     27 HD21 ASN A   9      23.146   2.768 -13.294  0.00  0.00    +0.145 HD
ATOM     28 HD22 ASN A   9      23.804   1.428 -14.302  0.00  0.00    +0.145 HD
ENDBRANCH  23  24
ENDBRANCH  20  23
ENDBRANCH  18  20
ENDBRANCH  15  16
BRANCH  15  29
ATOM     29  CB  ARG A   8      26.288  -2.420  -7.751  0.00  0.00    +0.033 C 
BRANCH  29  30
ATOM     30  CG  ARG A   8      26.328  -2.681  -6.236  0.00  0.00    +0.045 C 
BRANCH  30  31
ATOM     31  CD  ARG A   8      26.412  -4.185  -5.935  0.00  0.00    +0.174 C 
BRANCH  31  32
ATOM     32  NE  ARG A   8      25.167  -4.852  -6.361  0.00  0.00    -0.265 N 
ATOM     33  HE  ARG A   8      24.363  -4.822  -5.702  0.00  0.00    +0.259 HD
ATOM     34  CZ  ARG A   8      24.982  -5.490  -7.517  0.00  0.00    +0.342 C 
ATOM     35  NH2 ARG A   8      23.778  -6.023  -7.780  0.00  0.00    -0.292 N 
ATOM     36 HH21 ARG A   8      23.008  -5.935  -7.087  0.00  0.00    +0.255 HD
ATOM     37 HH22 ARG A   8      23.616  -6.524  -8.677  0.00  0.00    +0.255 HD
ATOM     38  NH1 ARG A   8      25.961  -5.614  -8.419  0.00  0.00    -0.292 N 
ATOM     39 HH11 ARG A   8      26.899  -5.207  -8.228  0.00  0.00    +0.255 HD
ATOM     40 HH12 ARG A   8      25.785  -6.118  -9.312  0.00  0.00    +0.255 HD
ENDBRANCH  31  32
ENDBRANCH  30  31
ENDBRANCH  29  30
ENDBRANCH  15  29
ENDBRANCH  12  15
ENDBRANCH  10  11
ENDBRANCH   8  10
ENDBRANCH   5   6
BRANCH   5  41
ATOM     41  CB  ILE A   6      25.498   6.098  -6.646  0.00  0.00    +0.027 C 
ATOM     42  CG2 ILE A   6      26.413   5.581  -7.772  0.00  0.00    +0.002 C 
BRANCH  41  43
ATOM     43  CG1 ILE A   6      25.334   7.631  -6.716  0.00  0.00    +0.002 C 
ATOM     44  CD1 ILE A   6      24.471   8.147  -7.880  0.00  0.00    +0.000 C 
ENDBRANCH  41  43
ENDBRANCH   5  41
ENDBRANCH   2   5
BRANCH   1  45
ATOM     45  CA  ILE A   5      21.040   6.393  -4.821  0.00  0.00    +0.149 C 
BRANCH  45  48
ATOM     46  C   ASN A   4      20.339   8.669  -4.409  0.00  0.00    +0.241 C 
ATOM     47  O   ASN A   4      21.094   8.800  -3.446  0.00  0.00    -0.273 OA
ATOM     48  N   ILE A   5      20.280   7.576  -5.155  0.00  0.00    -0.297 N 
ATOM     49  H   ILE A   5      19.673   7.569  -6.000  0.00  0.00    +0.150 HD
BRANCH  46  50
ATOM     50  CA  ASN A   4      19.402   9.771  -4.797  0.00  0.00    +0.158 C 
BRANCH  50  52
ATOM     51  C   ALA A   3      17.715   9.360  -3.130  0.00  0.00    +0.241 C 
ATOM     52  N   ASN A   4      18.669  10.153  -3.613  0.00  0.00    -0.297 N 
ATOM     53  H   ASN A   4      18.887  11.051  -3.136  0.00  0.00    +0.150 HD
ATOM     54  O   ALA A   3      17.298   8.399  -3.761  0.00  0.00    -0.273 OA
BRANCH  51  55
ATOM     55  CA  ALA A   3      17.166   9.698  -1.765  0.00  0.00    +0.149 C 
ATOM     56  CB  ALA A   3      17.942   8.929  -0.667  0.00  0.00    +0.031 C 
BRANCH  55  59
ATOM     57  C   PRO A   2      14.921   9.990  -0.909  0.00  0.00    +0.241 C 
ATOM     58  O   PRO A   2      15.289  10.855  -0.137  0.00  0.00    -0.273 OA
ATOM     59  N   ALA A   3      15.763   9.349  -1.707  0.00  0.00    -0.297 N 
ATOM     60  H   ALA A   3      15.407   8.577  -2.306  0.00  0.00    +0.150 HD
BRANCH  57  63
ATOM     61  C   THR A   1      13.023   8.879  -3.270  0.00  0.00    +0.244 C 
ATOM     62  N   PRO A   2      13.202   8.545  -2.006  0.00  0.00    -0.272 N 
ATOM     63  CA  PRO A   2      13.454   9.571  -0.979  0.00  0.00    +0.152 C 
ATOM     64  CB  PRO A   2      13.047   8.865   0.303  0.00  0.00    +0.031 C 
ATOM     65  CG  PRO A   2      13.412   7.419   0.053  0.00  0.00    +0.024 C 
ATOM     66  CD  PRO A   2      13.145   7.189  -1.425  0.00  0.00    +0.094 C 
ATOM     67  O   THR A   1      13.080  10.057  -3.664  0.00  0.00    -0.273 OA
BRANCH  61  68
ATOM     68  CA  THR A   1      12.743   7.744  -4.247  0.00  0.00    +0.172 C 
BRANCH  68  69
ATOM     69  N   THR A   1      11.879   8.252  -5.291  0.00  0.00    -0.236 NA
ATOM     70  H   THR A   1      12.301   8.635  -6.161  0.00  0.00    +0.142 HD
ENDBRANCH  68  69
BRANCH  68  71
ATOM     71  CB  THR A   1      14.064   7.231  -4.867  0.00  0.00    +0.135 C 
ATOM     72  CG2 THR A   1      14.723   8.345  -5.670  0.00  0.00    +0.034 C 
BRANCH  71  73
ATOM     73  OG1 THR A   1      14.997   6.990  -3.821  0.00  0.00    -0.383 OA
ATOM     74  HG1 THR A   1      15.162   7.832  -3.327  0.00  0.00    +0.210 HD
ENDBRANCH  71  73
ENDBRANCH  68  71
ENDBRANCH  61  68
ENDBRANCH  57  63
ENDBRANCH  55  59
ENDBRANCH  51  55
ENDBRANCH  50  52
BRANCH  50  75
ATOM     75  CB  ASN A   4      20.207  10.964  -5.287  0.00  0.00    +0.114 C 
BRANCH  75  76
ATOM     76  CG  ASN A   4      19.322  12.072  -5.731  0.00  0.00    +0.222 C 
ATOM     77  ND2 ASN A   4      19.604  13.304  -5.310  0.00  0.00    -0.329 N 
ATOM     78 HD21 ASN A   4      20.436  13.470  -4.709  0.00  0.00    +0.145 HD
ATOM     79 HD22 ASN A   4      18.992  14.100  -5.583  0.00  0.00    +0.145 HD
ATOM     80  OD1 ASN A   4      18.359  11.815  -6.439  0.00  0.00    -0.275 OA
ENDBRANCH  75  76
ENDBRANCH  50  75
ENDBRANCH  46  50
ENDBRANCH  45  48
BRANCH  45  81
ATOM     81  CB  ILE A   5      20.070   5.257  -4.456  0.00  0.00    +0.027 C 
ATOM     82  CG2 ILE A   5      20.779   3.924  -4.443  0.00  0.00    +0.002 C 
BRANCH  81  83
ATOM     83  CG1 ILE A   5      19.455   5.556  -3.107  0.00  0.00    +0.002 C 
ATOM     84  CD1 ILE A   5      18.123   4.934  -2.958  0.00  0.00    +0.000 C 
ENDBRANCH  81  83
ENDBRANCH  45  81
ENDBRANCH   1  45
TORSDOF 31
REMARK  Name = ../refined-set-2016/2p3a/2p3a_pocket.pdb
REMARK  231 active torsions:
REMARK  status: ('A' for Active; 'I' for Inactive)
REMARK    1  A    between atoms: _1  and  _3
REMARK    2  A    between atoms: _3  and  _4
REMARK    3  A    between atoms: _3  and  _6
REMARK    4  A    between atoms: _6  and  _7
REMARK    5  A    between atoms: _7  and  _8
REMARK    6  A    between atoms: _8  and  _9
REMARK    7  A    between atoms: _18  and  _20
REMARK    8  A    between atoms: _20  and  _21
REMARK    9  A    between atoms: _20  and  _23
REMARK   10  A    between atoms: _23  and  _24
REMARK   11  A    between atoms: _27  and  _29
REMARK   12  A    between atoms: _29  and  _30
REMARK   13  A    between atoms: _29  and  _32
REMARK   14  A    between atoms: _32  and  _33
REMARK   15  A    between atoms: _36  and  _38
REMARK   16  A    between atoms: _38  and  _39
REMARK   17  A    between atoms: _38  and  _41
REMARK   18  A    between atoms: _41  and  _42
REMARK   19  A    between atoms: _45  and  _47
REMARK   20  A    between atoms: _47  and  _48
REMARK   21  A    between atoms: _47  and  _50
REMARK   22  A    between atoms: _50  and  _51
REMARK   23  A    between atoms: _54  and  _56
REMARK   24  A    between atoms: _56  and  _57
REMARK   25  A    between atoms: _59  and  _61
REMARK   26  A    between atoms: _61  and  _62
REMARK   27  A    between atoms: _65  and  _67
REMARK   28  A    between atoms: _67  and  _68
REMARK   29  A    between atoms: _67  and  _70
REMARK   30  A    between atoms: _70  and  _71
REMARK   31  A    between atoms: _74  and  _76
REMARK   32  A    between atoms: _76  and  _77
REMARK   33  A    between atoms: _76  and  _79
REMARK   34  A    between atoms: _79  and  _80
REMARK   35  A    between atoms: _83  and  _85
REMARK   36  A    between atoms: _85  and  _86
REMARK   37  A    between atoms: _85  and  _88
REMARK   38  A    between atoms: _88  and  _89
REMARK   39  A    between atoms: _92  and  _94
REMARK   40  A    between atoms: _94  and  _95
REMARK   41  A    between atoms: _94  and  _97
REMARK   42  A    between atoms: _100  and  _102
REMARK   43  A    between atoms: _102  and  _103
REMARK   44  A    between atoms: _102  and  _105
REMARK   45  A    between atoms: _105  and  _106
REMARK   46  A    between atoms: _106  and  _107
REMARK   47  A    between atoms: _107  and  _108
REMARK   48  A    between atoms: _117  and  _119
REMARK   49  A    between atoms: _119  and  _120
REMARK   50  A    between atoms: _119  and  _122
REMARK   51  A    between atoms: _122  and  _123
REMARK   52  A    between atoms: _123  and  _124
REMARK   53  A    between atoms: _126  and  _128
REMARK   54  A    between atoms: _128  and  _129
REMARK   55  A    between atoms: _128  and  _131
REMARK   56  A    between atoms: _131  and  _132
REMARK   57  A    between atoms: _135  and  _137
REMARK   58  A    between atoms: _137  and  _138
REMARK   59  A    between atoms: _140  and  _142
REMARK   60  A    between atoms: _142  and  _143
REMARK   61  A    between atoms: _145  and  _147
REMARK   62  A    between atoms: _147  and  _148
REMARK   63  A    between atoms: _147  and  _150
REMARK   64  A    between atoms: _150  and  _151
REMARK   65  A    between atoms: _154  and  _156
REMARK   66  A    between atoms: _156  and  _157
REMARK   67  A    between atoms: _159  and  _161
REMARK   68  A    between atoms: _161  and  _162
REMARK   69  A    between atoms: _164  and  _166
REMARK   70  A    between atoms: _166  and  _167
REMARK   71  A    between atoms: _166  and  _169
REMARK   72  A    between atoms: _169  and  _170
REMARK   73  A    between atoms: _176  and  _178
REMARK   74  A    between atoms: _178  and  _179
REMARK   75  A    between atoms: _178  and  _181
REMARK   76  A    between atoms: _184  and  _186
REMARK   77  A    between atoms: _186  and  _187
REMARK   78  A    between atoms: _186  and  _189
REMARK   79  A    between atoms: _192  and  _194
REMARK   80  A    between atoms: _194  and  _195
REMARK   81  A    between atoms: _194  and  _197
REMARK   82  A    between atoms: _197  and  _198
REMARK   83  A    between atoms: _198  and  _199
REMARK   84  A    between atoms: _204  and  _206
REMARK   85  A    between atoms: _206  and  _207
REMARK   86  A    between atoms: _206  and  _209
REMARK   87  A    between atoms: _209  and  _210
REMARK   88  A    between atoms: _213  and  _215
REMARK   89  A    between atoms: _215  and  _216
REMARK   90  A    between atoms: _215  and  _218
REMARK   91  A    between atoms: _218  and  _219
REMARK   92  A    between atoms: _223  and  _224
REMARK   93  A    between atoms: _229  and  _231
REMARK   94  A    between atoms: _231  and  _232
REMARK   95  A    between atoms: _235  and  _237
REMARK   96  A    between atoms: _237  and  _238
REMARK   97  A    between atoms: _237  and  _240
REMARK   98  A    between atoms: _240  and  _241
REMARK   99  A    between atoms: _246  and  _248
REMARK  100  A    between atoms: _248  and  _249
REMARK  101  A    between atoms: _248  and  _251
REMARK  102  A    between atoms: _251  and  _252
REMARK  103  A    between atoms: _255  and  _257
REMARK  104  A    between atoms: _257  and  _258
REMARK  105  A    between atoms: _257  and  _260
REMARK  106  A    between atoms: _260  and  _261
REMARK  107  A    between atoms: _264  and  _266
REMARK  108  A    between atoms: _266  and  _267
REMARK  109  A    between atoms: _269  and  _271
REMARK  110  A    between atoms: _271  and  _272
REMARK  111  A    between atoms: _271  and  _274
REMARK  112  A    between atoms: _274  and  _275
REMARK  113  A    between atoms: _275  and  _276
REMARK  114  A    between atoms: _276  and  _277
REMARK  115  A    between atoms: _286  and  _288
REMARK  116  A    between atoms: _288  and  _289
REMARK  117  A    between atoms: _288  and  _291
REMARK  118  A    between atoms: _291  and  _292
REMARK  119  A    between atoms: _292  and  _293
REMARK  120  A    between atoms: _293  and  _294
REMARK  121  A    between atoms: _303  and  _305
REMARK  122  A    between atoms: _305  and  _306
REMARK  123  A    between atoms: _305  and  _308
REMARK  124  A    between atoms: _308  and  _309
REMARK  125  A    between atoms: _312  and  _314
REMARK  126  A    between atoms: _314  and  _315
REMARK  127  A    between atoms: _314  and  _317
REMARK  128  A    between atoms: _317  and  _318
REMARK  129  A    between atoms: _321  and  _323
REMARK  130  A    between atoms: _323  and  _324
REMARK  131  A    between atoms: _323  and  _326
REMARK  132  A    between atoms: _326  and  _327
REMARK  133  A    between atoms: _330  and  _332
REMARK  134  A    between atoms: _332  and  _333
REMARK  135  A    between atoms: _332  and  _335
REMARK  136  A    between atoms: _335  and  _336
REMARK  137  A    between atoms: _339  and  _341
REMARK  138  A    between atoms: _341  and  _342
REMARK  139  A    between atoms: _344  and  _346
REMARK  140  A    between atoms: _346  and  _347
REMARK  141  A    between atoms: _350  and  _352
REMARK  142  A    between atoms: _352  and  _353
REMARK  143  A    between atoms: _352  and  _355
REMARK  144  A    between atoms: _355  and  _356
REMARK  145  A    between atoms: _359  and  _361
REMARK  146  A    between atoms: _361  and  _362
REMARK  147  A    between atoms: _361  and  _364
REMARK  148  A    between atoms: _364  and  _365
REMARK  149  A    between atoms: _368  and  _370
REMARK  150  A    between atoms: _370  and  _371
REMARK  151  A    between atoms: _370  and  _373
REMARK  152  A    between atoms: _373  and  _374
REMARK  153  A    between atoms: _377  and  _379
REMARK  154  A    between atoms: _379  and  _380
REMARK  155  A    between atoms: _379  and  _382
REMARK  156  A    between atoms: _385  and  _387
REMARK  157  A    between atoms: _387  and  _388
REMARK  158  A    between atoms: _387  and  _390
REMARK  159  A    between atoms: _390  and  _391
REMARK  160  A    between atoms: _394  and  _396
REMARK  161  A    between atoms: _396  and  _397
REMARK  162  A    between atoms: _396  and  _399
REMARK  163  A    between atoms: _399  and  _400
REMARK  164  A    between atoms: _400  and  _401
REMARK  165  A    between atoms: _401  and  _402
REMARK  166  A    between atoms: _411  and  _413
REMARK  167  A    between atoms: _413  and  _414
REMARK  168  A    between atoms: _413  and  _416
REMARK  169  A    between atoms: _416  and  _417
REMARK  170  A    between atoms: _417  and  _418
REMARK  171  A    between atoms: _420  and  _422
REMARK  172  A    between atoms: _422  and  _423
REMARK  173  A    between atoms: _422  and  _425
REMARK  174  A    between atoms: _425  and  _426
REMARK  175  A    between atoms: _429  and  _431
REMARK  176  A    between atoms: _431  and  _432
REMARK  177  A    between atoms: _434  and  _436
REMARK  178  A    between atoms: _436  and  _437
REMARK  179  A    between atoms: _439  and  _441
REMARK  180  A    between atoms: _441  and  _442
REMARK  181  A    between atoms: _441  and  _444
REMARK  182  A    between atoms: _444  and  _445
REMARK  183  A    between atoms: _448  and  _450
REMARK  184  A    between atoms: _450  and  _451
REMARK  185  A    between atoms: _453  and  _455
REMARK  186  A    between atoms: _455  and  _456
REMARK  187  A    between atoms: _458  and  _460
REMARK  188  A    between atoms: _460  and  _461
REMARK  189  A    between atoms: _460  and  _463
REMARK  190  A    between atoms: _463  and  _464
REMARK  191  A    between atoms: _470  and  _472
REMARK  192  A    between atoms: _472  and  _473
REMARK  193  A    between atoms: _472  and  _475
REMARK  194  A    between atoms: _478  and  _480
REMARK  195  A    between atoms: _480  and  _481
REMARK  196  A    between atoms: _480  and  _483
REMARK  197  A    between atoms: _486  and  _488
REMARK  198  A    between atoms: _488  and  _489
REMARK  199  A    between atoms: _488  and  _491
REMARK  200  A    between atoms: _491  and  _492
REMARK  201  A    between atoms: _495  and  _497
REMARK  202  A    between atoms: _497  and  _498
REMARK  203  A    between atoms: _497  and  _500
REMARK  204  A    between atoms: _500  and  _501
REMARK  205  A    between atoms: _505  and  _506
REMARK  206  A    between atoms: _511  and  _513
REMARK  207  A    between atoms: _513  and  _514
REMARK  208  A    between atoms: _517  and  _519
REMARK  209  A    between atoms: _519  and  _520
REMARK  210  A    between atoms: _519  and  _522
REMARK  211  A    between atoms: _522  and  _523
REMARK  212  A    between atoms: _528  and  _530
REMARK  213  A    between atoms: _530  and  _531
REMARK  214  A    between atoms: _530  and  _533
REMARK  215  A    between atoms: _533  and  _534
REMARK  216  A    between atoms: _537  and  _539
REMARK  217  A    between atoms: _539  and  _540
REMARK  218  A    between atoms: _539  and  _542
REMARK  219  A    between atoms: _542  and  _543
REMARK  220  A    between atoms: _546  and  _548
REMARK  221  A    between atoms: _548  and  _549
REMARK  222  A    between atoms: _551  and  _553
REMARK  223  A    between atoms: _553  and  _554
REMARK  224  A    between atoms: _553  and  _556
REMARK  225  A    between atoms: _556  and  _557
REMARK  226  A    between atoms: _557  and  _558
REMARK  227  A    between atoms: _558  and  _559
REMARK  228  A    between atoms: _568  and  _570
REMARK  229  A    between atoms: _570  and  _571
REMARK  230  A    between atoms: _570  and  _573
REMARK  231  A    between atoms: _573  and  _574
REMARK                            x       y       z     vdW  Elec       q    Type
REMARK                         _______ _______ _______ _____ _____    ______ ____
ROOT
ATOM      1  O   HOH     1      14.525  -0.056   0.220  0.00  0.00    +0.000 OA
ENDROOT
TORSDOF 0
REMARK  Name = ../refined-set-2016/2p3a/2p3a_pocket.pdb
REMARK  231 active torsions:
REMARK  status: ('A' for Active; 'I' for Inactive)
REMARK    1  A    between atoms: _1  and  _3
REMARK    2  A    between atoms: _3  and  _4
REMARK    3  A    between atoms: _3  and  _6
REMARK    4  A    between atoms: _6  and  _7
REMARK    5  A    between atoms: _7  and  _8
REMARK    6  A    between atoms: _8  and  _9
REMARK    7  A    between atoms: _18  and  _20
REMARK    8  A    between atoms: _20  and  _21
REMARK    9  A    between atoms: _20  and  _23
REMARK   10  A    between atoms: _23  and  _24
REMARK   11  A    between atoms: _27  and  _29
REMARK   12  A    between atoms: _29  and  _30
REMARK   13  A    between atoms: _29  and  _32
REMARK   14  A    between atoms: _32  and  _33
REMARK   15  A    between atoms: _36  and  _38
REMARK   16  A    between atoms: _38  and  _39
REMARK   17  A    between atoms: _38  and  _41
REMARK   18  A    between atoms: _41  and  _42
REMARK   19  A    between atoms: _45  and  _47
REMARK   20  A    between atoms: _47  and  _48
REMARK   21  A    between atoms: _47  and  _50
REMARK   22  A    between atoms: _50  and  _51
REMARK   23  A    between atoms: _54  and  _56
REMARK   24  A    between atoms: _56  and  _57
REMARK   25  A    between atoms: _59  and  _61
REMARK   26  A    between atoms: _61  and  _62
REMARK   27  A    between atoms: _65  and  _67
REMARK   28  A    between atoms: _67  and  _68
REMARK   29  A    between atoms: _67  and  _70
REMARK   30  A    between atoms: _70  and  _71
REMARK   31  A    between atoms: _74  and  _76
REMARK   32  A    between atoms: _76  and  _77
REMARK   33  A    between atoms: _76  and  _79
REMARK   34  A    between atoms: _79  and  _80
REMARK   35  A    between atoms: _83  and  _85
REMARK   36  A    between atoms: _85  and  _86
REMARK   37  A    between atoms: _85  and  _88
REMARK   38  A    between atoms: _88  and  _89
REMARK   39  A    between atoms: _92  and  _94
REMARK   40  A    between atoms: _94  and  _95
REMARK   41  A    between atoms: _94  and  _97
REMARK   42  A    between atoms: _100  and  _102
REMARK   43  A    between atoms: _102  and  _103
REMARK   44  A    between atoms: _102  and  _105
REMARK   45  A    between atoms: _105  and  _106
REMARK   46  A    between atoms: _106  and  _107
REMARK   47  A    between atoms: _107  and  _108
REMARK   48  A    between atoms: _117  and  _119
REMARK   49  A    between atoms: _119  and  _120
REMARK   50  A    between atoms: _119  and  _122
REMARK   51  A    between atoms: _122  and  _123
REMARK   52  A    between atoms: _123  and  _124
REMARK   53  A    between atoms: _126  and  _128
REMARK   54  A    between atoms: _128  and  _129
REMARK   55  A    between atoms: _128  and  _131
REMARK   56  A    between atoms: _131  and  _132
REMARK   57  A    between atoms: _135  and  _137
REMARK   58  A    between atoms: _137  and  _138
REMARK   59  A    between atoms: _140  and  _142
REMARK   60  A    between atoms: _142  and  _143
REMARK   61  A    between atoms: _145  and  _147
REMARK   62  A    between atoms: _147  and  _148
REMARK   63  A    between atoms: _147  and  _150
REMARK   64  A    between atoms: _150  and  _151
REMARK   65  A    between atoms: _154  and  _156
REMARK   66  A    between atoms: _156  and  _157
REMARK   67  A    between atoms: _159  and  _161
REMARK   68  A    between atoms: _161  and  _162
REMARK   69  A    between atoms: _164  and  _166
REMARK   70  A    between atoms: _166  and  _167
REMARK   71  A    between atoms: _166  and  _169
REMARK   72  A    between atoms: _169  and  _170
REMARK   73  A    between atoms: _176  and  _178
REMARK   74  A    between atoms: _178  and  _179
REMARK   75  A    between atoms: _178  and  _181
REMARK   76  A    between atoms: _184  and  _186
REMARK   77  A    between atoms: _186  and  _187
REMARK   78  A    between atoms: _186  and  _189
REMARK   79  A    between atoms: _192  and  _194
REMARK   80  A    between atoms: _194  and  _195
REMARK   81  A    between atoms: _194  and  _197
REMARK   82  A    between atoms: _197  and  _198
REMARK   83  A    between atoms: _198  and  _199
REMARK   84  A    between atoms: _204  and  _206
REMARK   85  A    between atoms: _206  and  _207
REMARK   86  A    between atoms: _206  and  _209
REMARK   87  A    between atoms: _209  and  _210
REMARK   88  A    between atoms: _213  and  _215
REMARK   89  A    between atoms: _215  and  _216
REMARK   90  A    between atoms: _215  and  _218
REMARK   91  A    between atoms: _218  and  _219
REMARK   92  A    between atoms: _223  and  _224
REMARK   93  A    between atoms: _229  and  _231
REMARK   94  A    between atoms: _231  and  _232
REMARK   95  A    between atoms: _235  and  _237
REMARK   96  A    between atoms: _237  and  _238
REMARK   97  A    between atoms: _237  and  _240
REMARK   98  A    between atoms: _240  and  _241
REMARK   99  A    between atoms: _246  and  _248
REMARK  100  A    between atoms: _248  and  _249
REMARK  101  A    between atoms: _248  and  _251
REMARK  102  A    between atoms: _251  and  _252
REMARK  103  A    between atoms: _255  and  _257
REMARK  104  A    between atoms: _257  and  _258
REMARK  105  A    between atoms: _257  and  _260
REMARK  106  A    between atoms: _260  and  _261
REMARK  107  A    between atoms: _264  and  _266
REMARK  108  A    between atoms: _266  and  _267
REMARK  109  A    between atoms: _269  and  _271
REMARK  110  A    between atoms: _271  and  _272
REMARK  111  A    between atoms: _271  and  _274
REMARK  112  A    between atoms: _274  and  _275
REMARK  113  A    between atoms: _275  and  _276
REMARK  114  A    between atoms: _276  and  _277
REMARK  115  A    between atoms: _286  and  _288
REMARK  116  A    between atoms: _288  and  _289
REMARK  117  A    between atoms: _288  and  _291
REMARK  118  A    between atoms: _291  and  _292
REMARK  119  A    between atoms: _292  and  _293
REMARK  120  A    between atoms: _293  and  _294
REMARK  121  A    between atoms: _303  and  _305
REMARK  122  A    between atoms: _305  and  _306
REMARK  123  A    between atoms: _305  and  _308
REMARK  124  A    between atoms: _308  and  _309
REMARK  125  A    between atoms: _312  and  _314
REMARK  126  A    between atoms: _314  and  _315
REMARK  127  A    between atoms: _314  and  _317
REMARK  128  A    between atoms: _317  and  _318
REMARK  129  A    between atoms: _321  and  _323
REMARK  130  A    between atoms: _323  and  _324
REMARK  131  A    between atoms: _323  and  _326
REMARK  132  A    between atoms: _326  and  _327
REMARK  133  A    between atoms: _330  and  _332
REMARK  134  A    between atoms: _332  and  _333
REMARK  135  A    between atoms: _332  and  _335
REMARK  136  A    between atoms: _335  and  _336
REMARK  137  A    between atoms: _339  and  _341
REMARK  138  A    between atoms: _341  and  _342
REMARK  139  A    between atoms: _344  and  _346
REMARK  140  A    between atoms: _346  and  _347
REMARK  141  A    between atoms: _350  and  _352
REMARK  142  A    between atoms: _352  and  _353
REMARK  143  A    between atoms: _352  and  _355
REMARK  144  A    between atoms: _355  and  _356
REMARK  145  A    between atoms: _359  and  _361
REMARK  146  A    between atoms: _361  and  _362
REMARK  147  A    between atoms: _361  and  _364
REMARK  148  A    between atoms: _364  and  _365
REMARK  149  A    between atoms: _368  and  _370
REMARK  150  A    between atoms: _370  and  _371
REMARK  151  A    between atoms: _370  and  _373
REMARK  152  A    between atoms: _373  and  _374
REMARK  153  A    between atoms: _377  and  _379
REMARK  154  A    between atoms: _379  and  _380
REMARK  155  A    between atoms: _379  and  _382
REMARK  156  A    between atoms: _385  and  _387
REMARK  157  A    between atoms: _387  and  _388
REMARK  158  A    between atoms: _387  and  _390
REMARK  159  A    between atoms: _390  and  _391
REMARK  160  A    between atoms: _394  and  _396
REMARK  161  A    between atoms: _396  and  _397
REMARK  162  A    between atoms: _396  and  _399
REMARK  163  A    between atoms: _399  and  _400
REMARK  164  A    between atoms: _400  and  _401
REMARK  165  A    between atoms: _401  and  _402
REMARK  166  A    between atoms: _411  and  _413
REMARK  167  A    between atoms: _413  and  _414
REMARK  168  A    between atoms: _413  and  _416
REMARK  169  A    between atoms: _416  and  _417
REMARK  170  A    between atoms: _417  and  _418
REMARK  171  A    between atoms: _420  and  _422
REMARK  172  A    between atoms: _422  and  _423
REMARK  173  A    between atoms: _422  and  _425
REMARK  174  A    between atoms: _425  and  _426
REMARK  175  A    between atoms: _429  and  _431
REMARK  176  A    between atoms: _431  and  _432
REMARK  177  A    between atoms: _434  and  _436
REMARK  178  A    between atoms: _436  and  _437
REMARK  179  A    between atoms: _439  and  _441
REMARK  180  A    between atoms: _441  and  _442
REMARK  181  A    between atoms: _441  and  _444
REMARK  182  A    between atoms: _444  and  _445
REMARK  183  A    between atoms: _448  and  _450
REMARK  184  A    between atoms: _450  and  _451
REMARK  185  A    between atoms: _453  and  _455
REMARK  186  A    between atoms: _455  and  _456
REMARK  187  A    between atoms: _458  and  _460
REMARK  188  A    between atoms: _460  and  _461
REMARK  189  A    between atoms: _460  and  _463
REMARK  190  A    between atoms: _463  and  _464
REMARK  191  A    between atoms: _470  and  _472
REMARK  192  A    between atoms: _472  and  _473
REMARK  193  A    between atoms: _472  and  _475
REMARK  194  A    between atoms: _478  and  _480
REMARK  195  A    between atoms: _480  and  _481
REMARK  196  A    between atoms: _480  and  _483
REMARK  197  A    between atoms: _486  and  _488
REMARK  198  A    between atoms: _488  and  _489
REMARK  199  A    between atoms: _488  and  _491
REMARK  200  A    between atoms: _491  and  _492
REMARK  201  A    between atoms: _495  and  _497
REMARK  202  A    between atoms: _497  and  _498
REMARK  203  A    between atoms: _497  and  _500
REMARK  204  A    between atoms: _500  and  _501
REMARK  205  A    between atoms: _505  and  _506
REMARK  206  A    between atoms: _511  and  _513
REMARK  207  A    between atoms: _513  and  _514
REMARK  208  A    between atoms: _517  and  _519
REMARK  209  A    between atoms: _519  and  _520
REMARK  210  A    between atoms: _519  and  _522
REMARK  211  A    between atoms: _522  and  _523
REMARK  212  A    between atoms: _528  and  _530
REMARK  213  A    between atoms: _530  and  _531
REMARK  214  A    between atoms: _530  and  _533
REMARK  215  A    between atoms: _533  and  _534
REMARK  216  A    between atoms: _537  and  _539
REMARK  217  A    between atoms: _539  and  _540
REMARK  218  A    between atoms: _539  and  _542
REMARK  219  A    between atoms: _542  and  _543
REMARK  220  A    between atoms: _546  and  _548
REMARK  221  A    between atoms: _548  and  _549
REMARK  222  A    between atoms: _551  and  _553
REMARK  223  A    between atoms: _553  and  _554
REMARK  224  A    between atoms: _553  and  _556
REMARK  225  A    between atoms: _556  and  _557
REMARK  226  A    between atoms: _557  and  _558
REMARK  227  A    between atoms: _558  and  _559
REMARK  228  A    between atoms: _568  and  _570
REMARK  229  A    between atoms: _570  and  _571
REMARK  230  A    between atoms: _570  and  _573
REMARK  231  A    between atoms: _573  and  _574
REMARK                            x       y       z     vdW  Elec       q    Type
REMARK                         _______ _______ _______ _____ _____    ______ ____
ROOT
ATOM      1  O   HOH     1      23.656   4.933   4.496  0.00  0.00    +0.000 OA
ENDROOT
TORSDOF 0
REMARK  Name = ../refined-set-2016/2p3a/2p3a_pocket.pdb
REMARK  231 active torsions:
REMARK  status: ('A' for Active; 'I' for Inactive)
REMARK    1  A    between atoms: _1  and  _3
REMARK    2  A    between atoms: _3  and  _4
REMARK    3  A    between atoms: _3  and  _6
REMARK    4  A    between atoms: _6  and  _7
REMARK    5  A    between atoms: _7  and  _8
REMARK    6  A    between atoms: _8  and  _9
REMARK    7  A    between atoms: _18  and  _20
REMARK    8  A    between atoms: _20  and  _21
REMARK    9  A    between atoms: _20  and  _23
REMARK   10  A    between atoms: _23  and  _24
REMARK   11  A    between atoms: _27  and  _29
REMARK   12  A    between atoms: _29  and  _30
REMARK   13  A    between atoms: _29  and  _32
REMARK   14  A    between atoms: _32  and  _33
REMARK   15  A    between atoms: _36  and  _38
REMARK   16  A    between atoms: _38  and  _39
REMARK   17  A    between atoms: _38  and  _41
REMARK   18  A    between atoms: _41  and  _42
REMARK   19  A    between atoms: _45  and  _47
REMARK   20  A    between atoms: _47  and  _48
REMARK   21  A    between atoms: _47  and  _50
REMARK   22  A    between atoms: _50  and  _51
REMARK   23  A    between atoms: _54  and  _56
REMARK   24  A    between atoms: _56  and  _57
REMARK   25  A    between atoms: _59  and  _61
REMARK   26  A    between atoms: _61  and  _62
REMARK   27  A    between atoms: _65  and  _67
REMARK   28  A    between atoms: _67  and  _68
REMARK   29  A    between atoms: _67  and  _70
REMARK   30  A    between atoms: _70  and  _71
REMARK   31  A    between atoms: _74  and  _76
REMARK   32  A    between atoms: _76  and  _77
REMARK   33  A    between atoms: _76  and  _79
REMARK   34  A    between atoms: _79  and  _80
REMARK   35  A    between atoms: _83  and  _85
REMARK   36  A    between atoms: _85  and  _86
REMARK   37  A    between atoms: _85  and  _88
REMARK   38  A    between atoms: _88  and  _89
REMARK   39  A    between atoms: _92  and  _94
REMARK   40  A    between atoms: _94  and  _95
REMARK   41  A    between atoms: _94  and  _97
REMARK   42  A    between atoms: _100  and  _102
REMARK   43  A    between atoms: _102  and  _103
REMARK   44  A    between atoms: _102  and  _105
REMARK   45  A    between atoms: _105  and  _106
REMARK   46  A    between atoms: _106  and  _107
REMARK   47  A    between atoms: _107  and  _108
REMARK   48  A    between atoms: _117  and  _119
REMARK   49  A    between atoms: _119  and  _120
REMARK   50  A    between atoms: _119  and  _122
REMARK   51  A    between atoms: _122  and  _123
REMARK   52  A    between atoms: _123  and  _124
REMARK   53  A    between atoms: _126  and  _128
REMARK   54  A    between atoms: _128  and  _129
REMARK   55  A    between atoms: _128  and  _131
REMARK   56  A    between atoms: _131  and  _132
REMARK   57  A    between atoms: _135  and  _137
REMARK   58  A    between atoms: _137  and  _138
REMARK   59  A    between atoms: _140  and  _142
REMARK   60  A    between atoms: _142  and  _143
REMARK   61  A    between atoms: _145  and  _147
REMARK   62  A    between atoms: _147  and  _148
REMARK   63  A    between atoms: _147  and  _150
REMARK   64  A    between atoms: _150  and  _151
REMARK   65  A    between atoms: _154  and  _156
REMARK   66  A    between atoms: _156  and  _157
REMARK   67  A    between atoms: _159  and  _161
REMARK   68  A    between atoms: _161  and  _162
REMARK   69  A    between atoms: _164  and  _166
REMARK   70  A    between atoms: _166  and  _167
REMARK   71  A    between atoms: _166  and  _169
REMARK   72  A    between atoms: _169  and  _170
REMARK   73  A    between atoms: _176  and  _178
REMARK   74  A    between atoms: _178  and  _179
REMARK   75  A    between atoms: _178  and  _181
REMARK   76  A    between atoms: _184  and  _186
REMARK   77  A    between atoms: _186  and  _187
REMARK   78  A    between atoms: _186  and  _189
REMARK   79  A    between atoms: _192  and  _194
REMARK   80  A    between atoms: _194  and  _195
REMARK   81  A    between atoms: _194  and  _197
REMARK   82  A    between atoms: _197  and  _198
REMARK   83  A    between atoms: _198  and  _199
REMARK   84  A    between atoms: _204  and  _206
REMARK   85  A    between atoms: _206  and  _207
REMARK   86  A    between atoms: _206  and  _209
REMARK   87  A    between atoms: _209  and  _210
REMARK   88  A    between atoms: _213  and  _215
REMARK   89  A    between atoms: _215  and  _216
REMARK   90  A    between atoms: _215  and  _218
REMARK   91  A    between atoms: _218  and  _219
REMARK   92  A    between atoms: _223  and  _224
REMARK   93  A    between atoms: _229  and  _231
REMARK   94  A    between atoms: _231  and  _232
REMARK   95  A    between atoms: _235  and  _237
REMARK   96  A    between atoms: _237  and  _238
REMARK   97  A    between atoms: _237  and  _240
REMARK   98  A    between atoms: _240  and  _241
REMARK   99  A    between atoms: _246  and  _248
REMARK  100  A    between atoms: _248  and  _249
REMARK  101  A    between atoms: _248  and  _251
REMARK  102  A    between atoms: _251  and  _252
REMARK  103  A    between atoms: _255  and  _257
REMARK  104  A    between atoms: _257  and  _258
REMARK  105  A    between atoms: _257  and  _260
REMARK  106  A    between atoms: _260  and  _261
REMARK  107  A    between atoms: _264  and  _266
REMARK  108  A    between atoms: _266  and  _267
REMARK  109  A    between atoms: _269  and  _271
REMARK  110  A    between atoms: _271  and  _272
REMARK  111  A    between atoms: _271  and  _274
REMARK  112  A    between atoms: _274  and  _275
REMARK  113  A    between atoms: _275  and  _276
REMARK  114  A    between atoms: _276  and  _277
REMARK  115  A    between atoms: _286  and  _288
REMARK  116  A    between atoms: _288  and  _289
REMARK  117  A    between atoms: _288  and  _291
REMARK  118  A    between atoms: _291  and  _292
REMARK  119  A    between atoms: _292  and  _293
REMARK  120  A    between atoms: _293  and  _294
REMARK  121  A    between atoms: _303  and  _305
REMARK  122  A    between atoms: _305  and  _306
REMARK  123  A    between atoms: _305  and  _308
REMARK  124  A    between atoms: _308  and  _309
REMARK  125  A    between atoms: _312  and  _314
REMARK  126  A    between atoms: _314  and  _315
REMARK  127  A    between atoms: _314  and  _317
REMARK  128  A    between atoms: _317  and  _318
REMARK  129  A    between atoms: _321  and  _323
REMARK  130  A    between atoms: _323  and  _324
REMARK  131  A    between atoms: _323  and  _326
REMARK  132  A    between atoms: _326  and  _327
REMARK  133  A    between atoms: _330  and  _332
REMARK  134  A    between atoms: _332  and  _333
REMARK  135  A    between atoms: _332  and  _335
REMARK  136  A    between atoms: _335  and  _336
REMARK  137  A    between atoms: _339  and  _341
REMARK  138  A    between atoms: _341  and  _342
REMARK  139  A    between atoms: _344  and  _346
REMARK  140  A    between atoms: _346  and  _347
REMARK  141  A    between atoms: _350  and  _352
REMARK  142  A    between atoms: _352  and  _353
REMARK  143  A    between atoms: _352  and  _355
REMARK  144  A    between atoms: _355  and  _356
REMARK  145  A    between atoms: _359  and  _361
REMARK  146  A    between atoms: _361  and  _362
REMARK  147  A    between atoms: _361  and  _364
REMARK  148  A    between atoms: _364  and  _365
REMARK  149  A    between atoms: _368  and  _370
REMARK  150  A    between atoms: _370  and  _371
REMARK  151  A    between atoms: _370  and  _373
REMARK  152  A    between atoms: _373  and  _374
REMARK  153  A    between atoms: _377  and  _379
REMARK  154  A    between atoms: _379  and  _380
REMARK  155  A    between atoms: _379  and  _382
REMARK  156  A    between atoms: _385  and  _387
REMARK  157  A    between atoms: _387  and  _388
REMARK  158  A    between atoms: _387  and  _390
REMARK  159  A    between atoms: _390  and  _391
REMARK  160  A    between atoms: _394  and  _396
REMARK  161  A    between atoms: _396  and  _397
REMARK  162  A    between atoms: _396  and  _399
REMARK  163  A    between atoms: _399  and  _400
REMARK  164  A    between atoms: _400  and  _401
REMARK  165  A    between atoms: _401  and  _402
REMARK  166  A    between atoms: _411  and  _413
REMARK  167  A    between atoms: _413  and  _414
REMARK  168  A    between atoms: _413  and  _416
REMARK  169  A    between atoms: _416  and  _417
REMARK  170  A    between atoms: _417  and  _418
REMARK  171  A    between atoms: _420  and  _422
REMARK  172  A    between atoms: _422  and  _423
REMARK  173  A    between atoms: _422  and  _425
REMARK  174  A    between atoms: _425  and  _426
REMARK  175  A    between atoms: _429  and  _431
REMARK  176  A    between atoms: _431  and  _432
REMARK  177  A    between atoms: _434  and  _436
REMARK  178  A    between atoms: _436  and  _437
REMARK  179  A    between atoms: _439  and  _441
REMARK  180  A    between atoms: _441  and  _442
REMARK  181  A    between atoms: _441  and  _444
REMARK  182  A    between atoms: _444  and  _445
REMARK  183  A    between atoms: _448  and  _450
REMARK  184  A    between atoms: _450  and  _451
REMARK  185  A    between atoms: _453  and  _455
REMARK  186  A    between atoms: _455  and  _456
REMARK  187  A    between atoms: _458  and  _460
REMARK  188  A    between atoms: _460  and  _461
REMARK  189  A    between atoms: _460  and  _463
REMARK  190  A    between atoms: _463  and  _464
REMARK  191  A    between atoms: _470  and  _472
REMARK  192  A    between atoms: _472  and  _473
REMARK  193  A    between atoms: _472  and  _475
REMARK  194  A    between atoms: _478  and  _480
REMARK  195  A    between atoms: _480  and  _481
REMARK  196  A    between atoms: _480  and  _483
REMARK  197  A    between atoms: _486  and  _488
REMARK  198  A    between atoms: _488  and  _489
REMARK  199  A    between atoms: _488  and  _491
REMARK  200  A    between atoms: _491  and  _492
REMARK  201  A    between atoms: _495  and  _497
REMARK  202  A    between atoms: _497  and  _498
REMARK  203  A    between atoms: _497  and  _500
REMARK  204  A    between atoms: _500  and  _501
REMARK  205  A    between atoms: _505  and  _506
REMARK  206  A    between atoms: _511  and  _513
REMARK  207  A    between atoms: _513  and  _514
REMARK  208  A    between atoms: _517  and  _519
REMARK  209  A    between atoms: _519  and  _520
REMARK  210  A    between atoms: _519  and  _522
REMARK  211  A    between atoms: _522  and  _523
REMARK  212  A    between atoms: _528  and  _530
REMARK  213  A    between atoms: _530  and  _531
REMARK  214  A    between atoms: _530  and  _533
REMARK  215  A    between atoms: _533  and  _534
REMARK  216  A    between atoms: _537  and  _539
REMARK  217  A    between atoms: _539  and  _540
REMARK  218  A    between atoms: _539  and  _542
REMARK  219  A    between atoms: _542  and  _543
REMARK  220  A    between atoms: _546  and  _548
REMARK  221  A    between atoms: _548  and  _549
REMARK  222  A    between atoms: _551  and  _553
REMARK  223  A    between atoms: _553  and  _554
REMARK  224  A    between atoms: _553  and  _556
REMARK  225  A    between atoms: _556  and  _557
REMARK  226  A    between atoms: _557  and  _558
REMARK  227  A    between atoms: _558  and  _559
REMARK  228  A    between atoms: _568  and  _570
REMARK  229  A    between atoms: _570  and  _571
REMARK  230  A    between atoms: _570  and  _573
REMARK  231  A    between atoms: _573  and  _574
REMARK                            x       y       z     vdW  Elec       q    Type
REMARK                         _______ _______ _______ _____ _____    ______ ____
ROOT
ATOM      1  O   HOH     1      20.357  -2.098  13.134  0.00  0.00    +0.000 OA
ENDROOT
TORSDOF 0
REMARK  Name = ../refined-set-2016/2p3a/2p3a_pocket.pdb
REMARK  231 active torsions:
REMARK  status: ('A' for Active; 'I' for Inactive)
REMARK    1  A    between atoms: _1  and  _3
REMARK    2  A    between atoms: _3  and  _4
REMARK    3  A    between atoms: _3  and  _6
REMARK    4  A    between atoms: _6  and  _7
REMARK    5  A    between atoms: _7  and  _8
REMARK    6  A    between atoms: _8  and  _9
REMARK    7  A    between atoms: _18  and  _20
REMARK    8  A    between atoms: _20  and  _21
REMARK    9  A    between atoms: _20  and  _23
REMARK   10  A    between atoms: _23  and  _24
REMARK   11  A    between atoms: _27  and  _29
REMARK   12  A    between atoms: _29  and  _30
REMARK   13  A    between atoms: _29  and  _32
REMARK   14  A    between atoms: _32  and  _33
REMARK   15  A    between atoms: _36  and  _38
REMARK   16  A    between atoms: _38  and  _39
REMARK   17  A    between atoms: _38  and  _41
REMARK   18  A    between atoms: _41  and  _42
REMARK   19  A    between atoms: _45  and  _47
REMARK   20  A    between atoms: _47  and  _48
REMARK   21  A    between atoms: _47  and  _50
REMARK   22  A    between atoms: _50  and  _51
REMARK   23  A    between atoms: _54  and  _56
REMARK   24  A    between atoms: _56  and  _57
REMARK   25  A    between atoms: _59  and  _61
REMARK   26  A    between atoms: _61  and  _62
REMARK   27  A    between atoms: _65  and  _67
REMARK   28  A    between atoms: _67  and  _68
REMARK   29  A    between atoms: _67  and  _70
REMARK   30  A    between atoms: _70  and  _71
REMARK   31  A    between atoms: _74  and  _76
REMARK   32  A    between atoms: _76  and  _77
REMARK   33  A    between atoms: _76  and  _79
REMARK   34  A    between atoms: _79  and  _80
REMARK   35  A    between atoms: _83  and  _85
REMARK   36  A    between atoms: _85  and  _86
REMARK   37  A    between atoms: _85  and  _88
REMARK   38  A    between atoms: _88  and  _89
REMARK   39  A    between atoms: _92  and  _94
REMARK   40  A    between atoms: _94  and  _95
REMARK   41  A    between atoms: _94  and  _97
REMARK   42  A    between atoms: _100  and  _102
REMARK   43  A    between atoms: _102  and  _103
REMARK   44  A    between atoms: _102  and  _105
REMARK   45  A    between atoms: _105  and  _106
REMARK   46  A    between atoms: _106  and  _107
REMARK   47  A    between atoms: _107  and  _108
REMARK   48  A    between atoms: _117  and  _119
REMARK   49  A    between atoms: _119  and  _120
REMARK   50  A    between atoms: _119  and  _122
REMARK   51  A    between atoms: _122  and  _123
REMARK   52  A    between atoms: _123  and  _124
REMARK   53  A    between atoms: _126  and  _128
REMARK   54  A    between atoms: _128  and  _129
REMARK   55  A    between atoms: _128  and  _131
REMARK   56  A    between atoms: _131  and  _132
REMARK   57  A    between atoms: _135  and  _137
REMARK   58  A    between atoms: _137  and  _138
REMARK   59  A    between atoms: _140  and  _142
REMARK   60  A    between atoms: _142  and  _143
REMARK   61  A    between atoms: _145  and  _147
REMARK   62  A    between atoms: _147  and  _148
REMARK   63  A    between atoms: _147  and  _150
REMARK   64  A    between atoms: _150  and  _151
REMARK   65  A    between atoms: _154  and  _156
REMARK   66  A    between atoms: _156  and  _157
REMARK   67  A    between atoms: _159  and  _161
REMARK   68  A    between atoms: _161  and  _162
REMARK   69  A    between atoms: _164  and  _166
REMARK   70  A    between atoms: _166  and  _167
REMARK   71  A    between atoms: _166  and  _169
REMARK   72  A    between atoms: _169  and  _170
REMARK   73  A    between atoms: _176  and  _178
REMARK   74  A    between atoms: _178  and  _179
REMARK   75  A    between atoms: _178  and  _181
REMARK   76  A    between atoms: _184  and  _186
REMARK   77  A    between atoms: _186  and  _187
REMARK   78  A    between atoms: _186  and  _189
REMARK   79  A    between atoms: _192  and  _194
REMARK   80  A    between atoms: _194  and  _195
REMARK   81  A    between atoms: _194  and  _197
REMARK   82  A    between atoms: _197  and  _198
REMARK   83  A    between atoms: _198  and  _199
REMARK   84  A    between atoms: _204  and  _206
REMARK   85  A    between atoms: _206  and  _207
REMARK   86  A    between atoms: _206  and  _209
REMARK   87  A    between atoms: _209  and  _210
REMARK   88  A    between atoms: _213  and  _215
REMARK   89  A    between atoms: _215  and  _216
REMARK   90  A    between atoms: _215  and  _218
REMARK   91  A    between atoms: _218  and  _219
REMARK   92  A    between atoms: _223  and  _224
REMARK   93  A    between atoms: _229  and  _231
REMARK   94  A    between atoms: _231  and  _232
REMARK   95  A    between atoms: _235  and  _237
REMARK   96  A    between atoms: _237  and  _238
REMARK   97  A    between atoms: _237  and  _240
REMARK   98  A    between atoms: _240  and  _241
REMARK   99  A    between atoms: _246  and  _248
REMARK  100  A    between atoms: _248  and  _249
REMARK  101  A    between atoms: _248  and  _251
REMARK  102  A    between atoms: _251  and  _252
REMARK  103  A    between atoms: _255  and  _257
REMARK  104  A    between atoms: _257  and  _258
REMARK  105  A    between atoms: _257  and  _260
REMARK  106  A    between atoms: _260  and  _261
REMARK  107  A    between atoms: _264  and  _266
REMARK  108  A    between atoms: _266  and  _267
REMARK  109  A    between atoms: _269  and  _271
REMARK  110  A    between atoms: _271  and  _272
REMARK  111  A    between atoms: _271  and  _274
REMARK  112  A    between atoms: _274  and  _275
REMARK  113  A    between atoms: _275  and  _276
REMARK  114  A    between atoms: _276  and  _277
REMARK  115  A    between atoms: _286  and  _288
REMARK  116  A    between atoms: _288  and  _289
REMARK  117  A    between atoms: _288  and  _291
REMARK  118  A    between atoms: _291  and  _292
REMARK  119  A    between atoms: _292  and  _293
REMARK  120  A    between atoms: _293  and  _294
REMARK  121  A    between atoms: _303  and  _305
REMARK  122  A    between atoms: _305  and  _306
REMARK  123  A    between atoms: _305  and  _308
REMARK  124  A    between atoms: _308  and  _309
REMARK  125  A    between atoms: _312  and  _314
REMARK  126  A    between atoms: _314  and  _315
REMARK  127  A    between atoms: _314  and  _317
REMARK  128  A    between atoms: _317  and  _318
REMARK  129  A    between atoms: _321  and  _323
REMARK  130  A    between atoms: _323  and  _324
REMARK  131  A    between atoms: _323  and  _326
REMARK  132  A    between atoms: _326  and  _327
REMARK  133  A    between atoms: _330  and  _332
REMARK  134  A    between atoms: _332  and  _333
REMARK  135  A    between atoms: _332  and  _335
REMARK  136  A    between atoms: _335  and  _336
REMARK  137  A    between atoms: _339  and  _341
REMARK  138  A    between atoms: _341  and  _342
REMARK  139  A    between atoms: _344  and  _346
REMARK  140  A    between atoms: _346  and  _347
REMARK  141  A    between atoms: _350  and  _352
REMARK  142  A    between atoms: _352  and  _353
REMARK  143  A    between atoms: _352  and  _355
REMARK  144  A    between atoms: _355  and  _356
REMARK  145  A    between atoms: _359  and  _361
REMARK  146  A    between atoms: _361  and  _362
REMARK  147  A    between atoms: _361  and  _364
REMARK  148  A    between atoms: _364  and  _365
REMARK  149  A    between atoms: _368  and  _370
REMARK  150  A    between atoms: _370  and  _371
REMARK  151  A    between atoms: _370  and  _373
REMARK  152  A    between atoms: _373  and  _374
REMARK  153  A    between atoms: _377  and  _379
REMARK  154  A    between atoms: _379  and  _380
REMARK  155  A    between atoms: _379  and  _382
REMARK  156  A    between atoms: _385  and  _387
REMARK  157  A    between atoms: _387  and  _388
REMARK  158  A    between atoms: _387  and  _390
REMARK  159  A    between atoms: _390  and  _391
REMARK  160  A    between atoms: _394  and  _396
REMARK  161  A    between atoms: _396  and  _397
REMARK  162  A    between atoms: _396  and  _399
REMARK  163  A    between atoms: _399  and  _400
REMARK  164  A    between atoms: _400  and  _401
REMARK  165  A    between atoms: _401  and  _402
REMARK  166  A    between atoms: _411  and  _413
REMARK  167  A    between atoms: _413  and  _414
REMARK  168  A    between atoms: _413  and  _416
REMARK  169  A    between atoms: _416  and  _417
REMARK  170  A    between atoms: _417  and  _418
REMARK  171  A    between atoms: _420  and  _422
REMARK  172  A    between atoms: _422  and  _423
REMARK  173  A    between atoms: _422  and  _425
REMARK  174  A    between atoms: _425  and  _426
REMARK  175  A    between atoms: _429  and  _431
REMARK  176  A    between atoms: _431  and  _432
REMARK  177  A    between atoms: _434  and  _436
REMARK  178  A    between atoms: _436  and  _437
REMARK  179  A    between atoms: _439  and  _441
REMARK  180  A    between atoms: _441  and  _442
REMARK  181  A    between atoms: _441  and  _444
REMARK  182  A    between atoms: _444  and  _445
REMARK  183  A    between atoms: _448  and  _450
REMARK  184  A    between atoms: _450  and  _451
REMARK  185  A    between atoms: _453  and  _455
REMARK  186  A    between atoms: _455  and  _456
REMARK  187  A    between atoms: _458  and  _460
REMARK  188  A    between atoms: _460  and  _461
REMARK  189  A    between atoms: _460  and  _463
REMARK  190  A    between atoms: _463  and  _464
REMARK  191  A    between atoms: _470  and  _472
REMARK  192  A    between atoms: _472  and  _473
REMARK  193  A    between atoms: _472  and  _475
REMARK  194  A    between atoms: _478  and  _480
REMARK  195  A    between atoms: _480  and  _481
REMARK  196  A    between atoms: _480  and  _483
REMARK  197  A    between atoms: _486  and  _488
REMARK  198  A    between atoms: _488  and  _489
REMARK  199  A    between atoms: _488  and  _491
REMARK  200  A    between atoms: _491  and  _492
REMARK  201  A    between atoms: _495  and  _497
REMARK  202  A    between atoms: _497  and  _498
REMARK  203  A    between atoms: _497  and  _500
REMARK  204  A    between atoms: _500  and  _501
REMARK  205  A    between atoms: _505  and  _506
REMARK  206  A    between atoms: _511  and  _513
REMARK  207  A    between atoms: _513  and  _514
REMARK  208  A    between atoms: _517  and  _519
REMARK  209  A    between atoms: _519  and  _520
REMARK  210  A    between atoms: _519  and  _522
REMARK  211  A    between atoms: _522  and  _523
REMARK  212  A    between atoms: _528  and  _530
REMARK  213  A    between atoms: _530  and  _531
REMARK  214  A    between atoms: _530  and  _533
REMARK  215  A    between atoms: _533  and  _534
REMARK  216  A    between atoms: _537  and  _539
REMARK  217  A    between atoms: _539  and  _540
REMARK  218  A    between atoms: _539  and  _542
REMARK  219  A    between atoms: _542  and  _543
REMARK  220  A    between atoms: _546  and  _548
REMARK  221  A    between atoms: _548  and  _549
REMARK  222  A    between atoms: _551  and  _553
REMARK  223  A    between atoms: _553  and  _554
REMARK  224  A    between atoms: _553  and  _556
REMARK  225  A    between atoms: _556  and  _557
REMARK  226  A    between atoms: _557  and  _558
REMARK  227  A    between atoms: _558  and  _559
REMARK  228  A    between atoms: _568  and  _570
REMARK  229  A    between atoms: _570  and  _571
REMARK  230  A    between atoms: _570  and  _573
REMARK  231  A    between atoms: _573  and  _574
REMARK                            x       y       z     vdW  Elec       q    Type
REMARK                         _______ _______ _______ _____ _____    ______ ____
ROOT
ATOM      1  O   HOH     1      20.982   5.163   4.436  0.00  0.00    +0.000 OA
ENDROOT
TORSDOF 0
REMARK  Name = ../refined-set-2016/2p3a/2p3a_pocket.pdb
REMARK  231 active torsions:
REMARK  status: ('A' for Active; 'I' for Inactive)
REMARK    1  A    between atoms: _1  and  _3
REMARK    2  A    between atoms: _3  and  _4
REMARK    3  A    between atoms: _3  and  _6
REMARK    4  A    between atoms: _6  and  _7
REMARK    5  A    between atoms: _7  and  _8
REMARK    6  A    between atoms: _8  and  _9
REMARK    7  A    between atoms: _18  and  _20
REMARK    8  A    between atoms: _20  and  _21
REMARK    9  A    between atoms: _20  and  _23
REMARK   10  A    between atoms: _23  and  _24
REMARK   11  A    between atoms: _27  and  _29
REMARK   12  A    between atoms: _29  and  _30
REMARK   13  A    between atoms: _29  and  _32
REMARK   14  A    between atoms: _32  and  _33
REMARK   15  A    between atoms: _36  and  _38
REMARK   16  A    between atoms: _38  and  _39
REMARK   17  A    between atoms: _38  and  _41
REMARK   18  A    between atoms: _41  and  _42
REMARK   19  A    between atoms: _45  and  _47
REMARK   20  A    between atoms: _47  and  _48
REMARK   21  A    between atoms: _47  and  _50
REMARK   22  A    between atoms: _50  and  _51
REMARK   23  A    between atoms: _54  and  _56
REMARK   24  A    between atoms: _56  and  _57
REMARK   25  A    between atoms: _59  and  _61
REMARK   26  A    between atoms: _61  and  _62
REMARK   27  A    between atoms: _65  and  _67
REMARK   28  A    between atoms: _67  and  _68
REMARK   29  A    between atoms: _67  and  _70
REMARK   30  A    between atoms: _70  and  _71
REMARK   31  A    between atoms: _74  and  _76
REMARK   32  A    between atoms: _76  and  _77
REMARK   33  A    between atoms: _76  and  _79
REMARK   34  A    between atoms: _79  and  _80
REMARK   35  A    between atoms: _83  and  _85
REMARK   36  A    between atoms: _85  and  _86
REMARK   37  A    between atoms: _85  and  _88
REMARK   38  A    between atoms: _88  and  _89
REMARK   39  A    between atoms: _92  and  _94
REMARK   40  A    between atoms: _94  and  _95
REMARK   41  A    between atoms: _94  and  _97
REMARK   42  A    between atoms: _100  and  _102
REMARK   43  A    between atoms: _102  and  _103
REMARK   44  A    between atoms: _102  and  _105
REMARK   45  A    between atoms: _105  and  _106
REMARK   46  A    between atoms: _106  and  _107
REMARK   47  A    between atoms: _107  and  _108
REMARK   48  A    between atoms: _117  and  _119
REMARK   49  A    between atoms: _119  and  _120
REMARK   50  A    between atoms: _119  and  _122
REMARK   51  A    between atoms: _122  and  _123
REMARK   52  A    between atoms: _123  and  _124
REMARK   53  A    between atoms: _126  and  _128
REMARK   54  A    between atoms: _128  and  _129
REMARK   55  A    between atoms: _128  and  _131
REMARK   56  A    between atoms: _131  and  _132
REMARK   57  A    between atoms: _135  and  _137
REMARK   58  A    between atoms: _137  and  _138
REMARK   59  A    between atoms: _140  and  _142
REMARK   60  A    between atoms: _142  and  _143
REMARK   61  A    between atoms: _145  and  _147
REMARK   62  A    between atoms: _147  and  _148
REMARK   63  A    between atoms: _147  and  _150
REMARK   64  A    between atoms: _150  and  _151
REMARK   65  A    between atoms: _154  and  _156
REMARK   66  A    between atoms: _156  and  _157
REMARK   67  A    between atoms: _159  and  _161
REMARK   68  A    between atoms: _161  and  _162
REMARK   69  A    between atoms: _164  and  _166
REMARK   70  A    between atoms: _166  and  _167
REMARK   71  A    between atoms: _166  and  _169
REMARK   72  A    between atoms: _169  and  _170
REMARK   73  A    between atoms: _176  and  _178
REMARK   74  A    between atoms: _178  and  _179
REMARK   75  A    between atoms: _178  and  _181
REMARK   76  A    between atoms: _184  and  _186
REMARK   77  A    between atoms: _186  and  _187
REMARK   78  A    between atoms: _186  and  _189
REMARK   79  A    between atoms: _192  and  _194
REMARK   80  A    between atoms: _194  and  _195
REMARK   81  A    between atoms: _194  and  _197
REMARK   82  A    between atoms: _197  and  _198
REMARK   83  A    between atoms: _198  and  _199
REMARK   84  A    between atoms: _204  and  _206
REMARK   85  A    between atoms: _206  and  _207
REMARK   86  A    between atoms: _206  and  _209
REMARK   87  A    between atoms: _209  and  _210
REMARK   88  A    between atoms: _213  and  _215
REMARK   89  A    between atoms: _215  and  _216
REMARK   90  A    between atoms: _215  and  _218
REMARK   91  A    between atoms: _218  and  _219
REMARK   92  A    between atoms: _223  and  _224
REMARK   93  A    between atoms: _229  and  _231
REMARK   94  A    between atoms: _231  and  _232
REMARK   95  A    between atoms: _235  and  _237
REMARK   96  A    between atoms: _237  and  _238
REMARK   97  A    between atoms: _237  and  _240
REMARK   98  A    between atoms: _240  and  _241
REMARK   99  A    between atoms: _246  and  _248
REMARK  100  A    between atoms: _248  and  _249
REMARK  101  A    between atoms: _248  and  _251
REMARK  102  A    between atoms: _251  and  _252
REMARK  103  A    between atoms: _255  and  _257
REMARK  104  A    between atoms: _257  and  _258
REMARK  105  A    between atoms: _257  and  _260
REMARK  106  A    between atoms: _260  and  _261
REMARK  107  A    between atoms: _264  and  _266
REMARK  108  A    between atoms: _266  and  _267
REMARK  109  A    between atoms: _269  and  _271
REMARK  110  A    between atoms: _271  and  _272
REMARK  111  A    between atoms: _271  and  _274
REMARK  112  A    between atoms: _274  and  _275
REMARK  113  A    between atoms: _275  and  _276
REMARK  114  A    between atoms: _276  and  _277
REMARK  115  A    between atoms: _286  and  _288
REMARK  116  A    between atoms: _288  and  _289
REMARK  117  A    between atoms: _288  and  _291
REMARK  118  A    between atoms: _291  and  _292
REMARK  119  A    between atoms: _292  and  _293
REMARK  120  A    between atoms: _293  and  _294
REMARK  121  A    between atoms: _303  and  _305
REMARK  122  A    between atoms: _305  and  _306
REMARK  123  A    between atoms: _305  and  _308
REMARK  124  A    between atoms: _308  and  _309
REMARK  125  A    between atoms: _312  and  _314
REMARK  126  A    between atoms: _314  and  _315
REMARK  127  A    between atoms: _314  and  _317
REMARK  128  A    between atoms: _317  and  _318
REMARK  129  A    between atoms: _321  and  _323
REMARK  130  A    between atoms: _323  and  _324
REMARK  131  A    between atoms: _323  and  _326
REMARK  132  A    between atoms: _326  and  _327
REMARK  133  A    between atoms: _330  and  _332
REMARK  134  A    between atoms: _332  and  _333
REMARK  135  A    between atoms: _332  and  _335
REMARK  136  A    between atoms: _335  and  _336
REMARK  137  A    between atoms: _339  and  _341
REMARK  138  A    between atoms: _341  and  _342
REMARK  139  A    between atoms: _344  and  _346
REMARK  140  A    between atoms: _346  and  _347
REMARK  141  A    between atoms: _350  and  _352
REMARK  142  A    between atoms: _352  and  _353
REMARK  143  A    between atoms: _352  and  _355
REMARK  144  A    between atoms: _355  and  _356
REMARK  145  A    between atoms: _359  and  _361
REMARK  146  A    between atoms: _361  and  _362
REMARK  147  A    between atoms: _361  and  _364
REMARK  148  A    between atoms: _364  and  _365
REMARK  149  A    between atoms: _368  and  _370
REMARK  150  A    between atoms: _370  and  _371
REMARK  151  A    between atoms: _370  and  _373
REMARK  152  A    between atoms: _373  and  _374
REMARK  153  A    between atoms: _377  and  _379
REMARK  154  A    between atoms: _379  and  _380
REMARK  155  A    between atoms: _379  and  _382
REMARK  156  A    between atoms: _385  and  _387
REMARK  157  A    between atoms: _387  and  _388
REMARK  158  A    between atoms: _387  and  _390
REMARK  159  A    between atoms: _390  and  _391
REMARK  160  A    between atoms: _394  and  _396
REMARK  161  A    between atoms: _396  and  _397
REMARK  162  A    between atoms: _396  and  _399
REMARK  163  A    between atoms: _399  and  _400
REMARK  164  A    between atoms: _400  and  _401
REMARK  165  A    between atoms: _401  and  _402
REMARK  166  A    between atoms: _411  and  _413
REMARK  167  A    between atoms: _413  and  _414
REMARK  168  A    between atoms: _413  and  _416
REMARK  169  A    between atoms: _416  and  _417
REMARK  170  A    between atoms: _417  and  _418
REMARK  171  A    between atoms: _420  and  _422
REMARK  172  A    between atoms: _422  and  _423
REMARK  173  A    between atoms: _422  and  _425
REMARK  174  A    between atoms: _425  and  _426
REMARK  175  A    between atoms: _429  and  _431
REMARK  176  A    between atoms: _431  and  _432
REMARK  177  A    between atoms: _434  and  _436
REMARK  178  A    between atoms: _436  and  _437
REMARK  179  A    between atoms: _439  and  _441
REMARK  180  A    between atoms: _441  and  _442
REMARK  181  A    between atoms: _441  and  _444
REMARK  182  A    between atoms: _444  and  _445
REMARK  183  A    between atoms: _448  and  _450
REMARK  184  A    between atoms: _450  and  _451
REMARK  185  A    between atoms: _453  and  _455
REMARK  186  A    between atoms: _455  and  _456
REMARK  187  A    between atoms: _458  and  _460
REMARK  188  A    between atoms: _460  and  _461
REMARK  189  A    between atoms: _460  and  _463
REMARK  190  A    between atoms: _463  and  _464
REMARK  191  A    between atoms: _470  and  _472
REMARK  192  A    between atoms: _472  and  _473
REMARK  193  A    between atoms: _472  and  _475
REMARK  194  A    between atoms: _478  and  _480
REMARK  195  A    between atoms: _480  and  _481
REMARK  196  A    between atoms: _480  and  _483
REMARK  197  A    between atoms: _486  and  _488
REMARK  198  A    between atoms: _488  and  _489
REMARK  199  A    between atoms: _488  and  _491
REMARK  200  A    between atoms: _491  and  _492
REMARK  201  A    between atoms: _495  and  _497
REMARK  202  A    between atoms: _497  and  _498
REMARK  203  A    between atoms: _497  and  _500
REMARK  204  A    between atoms: _500  and  _501
REMARK  205  A    between atoms: _505  and  _506
REMARK  206  A    between atoms: _511  and  _513
REMARK  207  A    between atoms: _513  and  _514
REMARK  208  A    between atoms: _517  and  _519
REMARK  209  A    between atoms: _519  and  _520
REMARK  210  A    between atoms: _519  and  _522
REMARK  211  A    between atoms: _522  and  _523
REMARK  212  A    between atoms: _528  and  _530
REMARK  213  A    between atoms: _530  and  _531
REMARK  214  A    between atoms: _530  and  _533
REMARK  215  A    between atoms: _533  and  _534
REMARK  216  A    between atoms: _537  and  _539
REMARK  217  A    between atoms: _539  and  _540
REMARK  218  A    between atoms: _539  and  _542
REMARK  219  A    between atoms: _542  and  _543
REMARK  220  A    between atoms: _546  and  _548
REMARK  221  A    between atoms: _548  and  _549
REMARK  222  A    between atoms: _551  and  _553
REMARK  223  A    between atoms: _553  and  _554
REMARK  224  A    between atoms: _553  and  _556
REMARK  225  A    between atoms: _556  and  _557
REMARK  226  A    between atoms: _557  and  _558
REMARK  227  A    between atoms: _558  and  _559
REMARK  228  A    between atoms: _568  and  _570
REMARK  229  A    between atoms: _570  and  _571
REMARK  230  A    between atoms: _570  and  _573
REMARK  231  A    between atoms: _573  and  _574
REMARK                            x       y       z     vdW  Elec       q    Type
REMARK                         _______ _______ _______ _____ _____    ______ ____
ROOT
ATOM      1  O   HOH     1      19.716 -12.160   2.479  0.00  0.00    +0.000 OA
ENDROOT
TORSDOF 0
REMARK  Name = ../refined-set-2016/2p3a/2p3a_pocket.pdb
REMARK  231 active torsions:
REMARK  status: ('A' for Active; 'I' for Inactive)
REMARK    1  A    between atoms: _1  and  _3
REMARK    2  A    between atoms: _3  and  _4
REMARK    3  A    between atoms: _3  and  _6
REMARK    4  A    between atoms: _6  and  _7
REMARK    5  A    between atoms: _7  and  _8
REMARK    6  A    between atoms: _8  and  _9
REMARK    7  A    between atoms: _18  and  _20
REMARK    8  A    between atoms: _20  and  _21
REMARK    9  A    between atoms: _20  and  _23
REMARK   10  A    between atoms: _23  and  _24
REMARK   11  A    between atoms: _27  and  _29
REMARK   12  A    between atoms: _29  and  _30
REMARK   13  A    between atoms: _29  and  _32
REMARK   14  A    between atoms: _32  and  _33
REMARK   15  A    between atoms: _36  and  _38
REMARK   16  A    between atoms: _38  and  _39
REMARK   17  A    between atoms: _38  and  _41
REMARK   18  A    between atoms: _41  and  _42
REMARK   19  A    between atoms: _45  and  _47
REMARK   20  A    between atoms: _47  and  _48
REMARK   21  A    between atoms: _47  and  _50
REMARK   22  A    between atoms: _50  and  _51
REMARK   23  A    between atoms: _54  and  _56
REMARK   24  A    between atoms: _56  and  _57
REMARK   25  A    between atoms: _59  and  _61
REMARK   26  A    between atoms: _61  and  _62
REMARK   27  A    between atoms: _65  and  _67
REMARK   28  A    between atoms: _67  and  _68
REMARK   29  A    between atoms: _67  and  _70
REMARK   30  A    between atoms: _70  and  _71
REMARK   31  A    between atoms: _74  and  _76
REMARK   32  A    between atoms: _76  and  _77
REMARK   33  A    between atoms: _76  and  _79
REMARK   34  A    between atoms: _79  and  _80
REMARK   35  A    between atoms: _83  and  _85
REMARK   36  A    between atoms: _85  and  _86
REMARK   37  A    between atoms: _85  and  _88
REMARK   38  A    between atoms: _88  and  _89
REMARK   39  A    between atoms: _92  and  _94
REMARK   40  A    between atoms: _94  and  _95
REMARK   41  A    between atoms: _94  and  _97
REMARK   42  A    between atoms: _100  and  _102
REMARK   43  A    between atoms: _102  and  _103
REMARK   44  A    between atoms: _102  and  _105
REMARK   45  A    between atoms: _105  and  _106
REMARK   46  A    between atoms: _106  and  _107
REMARK   47  A    between atoms: _107  and  _108
REMARK   48  A    between atoms: _117  and  _119
REMARK   49  A    between atoms: _119  and  _120
REMARK   50  A    between atoms: _119  and  _122
REMARK   51  A    between atoms: _122  and  _123
REMARK   52  A    between atoms: _123  and  _124
REMARK   53  A    between atoms: _126  and  _128
REMARK   54  A    between atoms: _128  and  _129
REMARK   55  A    between atoms: _128  and  _131
REMARK   56  A    between atoms: _131  and  _132
REMARK   57  A    between atoms: _135  and  _137
REMARK   58  A    between atoms: _137  and  _138
REMARK   59  A    between atoms: _140  and  _142
REMARK   60  A    between atoms: _142  and  _143
REMARK   61  A    between atoms: _145  and  _147
REMARK   62  A    between atoms: _147  and  _148
REMARK   63  A    between atoms: _147  and  _150
REMARK   64  A    between atoms: _150  and  _151
REMARK   65  A    between atoms: _154  and  _156
REMARK   66  A    between atoms: _156  and  _157
REMARK   67  A    between atoms: _159  and  _161
REMARK   68  A    between atoms: _161  and  _162
REMARK   69  A    between atoms: _164  and  _166
REMARK   70  A    between atoms: _166  and  _167
REMARK   71  A    between atoms: _166  and  _169
REMARK   72  A    between atoms: _169  and  _170
REMARK   73  A    between atoms: _176  and  _178
REMARK   74  A    between atoms: _178  and  _179
REMARK   75  A    between atoms: _178  and  _181
REMARK   76  A    between atoms: _184  and  _186
REMARK   77  A    between atoms: _186  and  _187
REMARK   78  A    between atoms: _186  and  _189
REMARK   79  A    between atoms: _192  and  _194
REMARK   80  A    between atoms: _194  and  _195
REMARK   81  A    between atoms: _194  and  _197
REMARK   82  A    between atoms: _197  and  _198
REMARK   83  A    between atoms: _198  and  _199
REMARK   84  A    between atoms: _204  and  _206
REMARK   85  A    between atoms: _206  and  _207
REMARK   86  A    between atoms: _206  and  _209
REMARK   87  A    between atoms: _209  and  _210
REMARK   88  A    between atoms: _213  and  _215
REMARK   89  A    between atoms: _215  and  _216
REMARK   90  A    between atoms: _215  and  _218
REMARK   91  A    between atoms: _218  and  _219
REMARK   92  A    between atoms: _223  and  _224
REMARK   93  A    between atoms: _229  and  _231
REMARK   94  A    between atoms: _231  and  _232
REMARK   95  A    between atoms: _235  and  _237
REMARK   96  A    between atoms: _237  and  _238
REMARK   97  A    between atoms: _237  and  _240
REMARK   98  A    between atoms: _240  and  _241
REMARK   99  A    between atoms: _246  and  _248
REMARK  100  A    between atoms: _248  and  _249
REMARK  101  A    between atoms: _248  and  _251
REMARK  102  A    between atoms: _251  and  _252
REMARK  103  A    between atoms: _255  and  _257
REMARK  104  A    between atoms: _257  and  _258
REMARK  105  A    between atoms: _257  and  _260
REMARK  106  A    between atoms: _260  and  _261
REMARK  107  A    between atoms: _264  and  _266
REMARK  108  A    between atoms: _266  and  _267
REMARK  109  A    between atoms: _269  and  _271
REMARK  110  A    between atoms: _271  and  _272
REMARK  111  A    between atoms: _271  and  _274
REMARK  112  A    between atoms: _274  and  _275
REMARK  113  A    between atoms: _275  and  _276
REMARK  114  A    between atoms: _276  and  _277
REMARK  115  A    between atoms: _286  and  _288
REMARK  116  A    between atoms: _288  and  _289
REMARK  117  A    between atoms: _288  and  _291
REMARK  118  A    between atoms: _291  and  _292
REMARK  119  A    between atoms: _292  and  _293
REMARK  120  A    between atoms: _293  and  _294
REMARK  121  A    between atoms: _303  and  _305
REMARK  122  A    between atoms: _305  and  _306
REMARK  123  A    between atoms: _305  and  _308
REMARK  124  A    between atoms: _308  and  _309
REMARK  125  A    between atoms: _312  and  _314
REMARK  126  A    between atoms: _314  and  _315
REMARK  127  A    between atoms: _314  and  _317
REMARK  128  A    between atoms: _317  and  _318
REMARK  129  A    between atoms: _321  and  _323
REMARK  130  A    between atoms: _323  and  _324
REMARK  131  A    between atoms: _323  and  _326
REMARK  132  A    between atoms: _326  and  _327
REMARK  133  A    between atoms: _330  and  _332
REMARK  134  A    between atoms: _332  and  _333
REMARK  135  A    between atoms: _332  and  _335
REMARK  136  A    between atoms: _335  and  _336
REMARK  137  A    between atoms: _339  and  _341
REMARK  138  A    between atoms: _341  and  _342
REMARK  139  A    between atoms: _344  and  _346
REMARK  140  A    between atoms: _346  and  _347
REMARK  141  A    between atoms: _350  and  _352
REMARK  142  A    between atoms: _352  and  _353
REMARK  143  A    between atoms: _352  and  _355
REMARK  144  A    between atoms: _355  and  _356
REMARK  145  A    between atoms: _359  and  _361
REMARK  146  A    between atoms: _361  and  _362
REMARK  147  A    between atoms: _361  and  _364
REMARK  148  A    between atoms: _364  and  _365
REMARK  149  A    between atoms: _368  and  _370
REMARK  150  A    between atoms: _370  and  _371
REMARK  151  A    between atoms: _370  and  _373
REMARK  152  A    between atoms: _373  and  _374
REMARK  153  A    between atoms: _377  and  _379
REMARK  154  A    between atoms: _379  and  _380
REMARK  155  A    between atoms: _379  and  _382
REMARK  156  A    between atoms: _385  and  _387
REMARK  157  A    between atoms: _387  and  _388
REMARK  158  A    between atoms: _387  and  _390
REMARK  159  A    between atoms: _390  and  _391
REMARK  160  A    between atoms: _394  and  _396
REMARK  161  A    between atoms: _396  and  _397
REMARK  162  A    between atoms: _396  and  _399
REMARK  163  A    between atoms: _399  and  _400
REMARK  164  A    between atoms: _400  and  _401
REMARK  165  A    between atoms: _401  and  _402
REMARK  166  A    between atoms: _411  and  _413
REMARK  167  A    between atoms: _413  and  _414
REMARK  168  A    between atoms: _413  and  _416
REMARK  169  A    between atoms: _416  and  _417
REMARK  170  A    between atoms: _417  and  _418
REMARK  171  A    between atoms: _420  and  _422
REMARK  172  A    between atoms: _422  and  _423
REMARK  173  A    between atoms: _422  and  _425
REMARK  174  A    between atoms: _425  and  _426
REMARK  175  A    between atoms: _429  and  _431
REMARK  176  A    between atoms: _431  and  _432
REMARK  177  A    between atoms: _434  and  _436
REMARK  178  A    between atoms: _436  and  _437
REMARK  179  A    between atoms: _439  and  _441
REMARK  180  A    between atoms: _441  and  _442
REMARK  181  A    between atoms: _441  and  _444
REMARK  182  A    between atoms: _444  and  _445
REMARK  183  A    between atoms: _448  and  _450
REMARK  184  A    between atoms: _450  and  _451
REMARK  185  A    between atoms: _453  and  _455
REMARK  186  A    between atoms: _455  and  _456
REMARK  187  A    between atoms: _458  and  _460
REMARK  188  A    between atoms: _460  and  _461
REMARK  189  A    between atoms: _460  and  _463
REMARK  190  A    between atoms: _463  and  _464
REMARK  191  A    between atoms: _470  and  _472
REMARK  192  A    between atoms: _472  and  _473
REMARK  193  A    between atoms: _472  and  _475
REMARK  194  A    between atoms: _478  and  _480
REMARK  195  A    between atoms: _480  and  _481
REMARK  196  A    between atoms: _480  and  _483
REMARK  197  A    between atoms: _486  and  _488
REMARK  198  A    between atoms: _488  and  _489
REMARK  199  A    between atoms: _488  and  _491
REMARK  200  A    between atoms: _491  and  _492
REMARK  201  A    between atoms: _495  and  _497
REMARK  202  A    between atoms: _497  and  _498
REMARK  203  A    between atoms: _497  and  _500
REMARK  204  A    between atoms: _500  and  _501
REMARK  205  A    between atoms: _505  and  _506
REMARK  206  A    between atoms: _511  and  _513
REMARK  207  A    between atoms: _513  and  _514
REMARK  208  A    between atoms: _517  and  _519
REMARK  209  A    between atoms: _519  and  _520
REMARK  210  A    between atoms: _519  and  _522
REMARK  211  A    between atoms: _522  and  _523
REMARK  212  A    between atoms: _528  and  _530
REMARK  213  A    between atoms: _530  and  _531
REMARK  214  A    between atoms: _530  and  _533
REMARK  215  A    between atoms: _533  and  _534
REMARK  216  A    between atoms: _537  and  _539
REMARK  217  A    between atoms: _539  and  _540
REMARK  218  A    between atoms: _539  and  _542
REMARK  219  A    between atoms: _542  and  _543
REMARK  220  A    between atoms: _546  and  _548
REMARK  221  A    between atoms: _548  and  _549
REMARK  222  A    between atoms: _551  and  _553
REMARK  223  A    between atoms: _553  and  _554
REMARK  224  A    between atoms: _553  and  _556
REMARK  225  A    between atoms: _556  and  _557
REMARK  226  A    between atoms: _557  and  _558
REMARK  227  A    between atoms: _558  and  _559
REMARK  228  A    between atoms: _568  and  _570
REMARK  229  A    between atoms: _570  and  _571
REMARK  230  A    between atoms: _570  and  _573
REMARK  231  A    between atoms: _573  and  _574
REMARK                            x       y       z     vdW  Elec       q    Type
REMARK                         _______ _______ _______ _____ _____    ______ ____
ROOT
ATOM      1  O   HOH     1      18.817   6.047  10.850  0.00  0.00    +0.000 OA
ENDROOT
TORSDOF 0
REMARK  Name = ../refined-set-2016/2p3a/2p3a_pocket.pdb
REMARK  231 active torsions:
REMARK  status: ('A' for Active; 'I' for Inactive)
REMARK    1  A    between atoms: _1  and  _3
REMARK    2  A    between atoms: _3  and  _4
REMARK    3  A    between atoms: _3  and  _6
REMARK    4  A    between atoms: _6  and  _7
REMARK    5  A    between atoms: _7  and  _8
REMARK    6  A    between atoms: _8  and  _9
REMARK    7  A    between atoms: _18  and  _20
REMARK    8  A    between atoms: _20  and  _21
REMARK    9  A    between atoms: _20  and  _23
REMARK   10  A    between atoms: _23  and  _24
REMARK   11  A    between atoms: _27  and  _29
REMARK   12  A    between atoms: _29  and  _30
REMARK   13  A    between atoms: _29  and  _32
REMARK   14  A    between atoms: _32  and  _33
REMARK   15  A    between atoms: _36  and  _38
REMARK   16  A    between atoms: _38  and  _39
REMARK   17  A    between atoms: _38  and  _41
REMARK   18  A    between atoms: _41  and  _42
REMARK   19  A    between atoms: _45  and  _47
REMARK   20  A    between atoms: _47  and  _48
REMARK   21  A    between atoms: _47  and  _50
REMARK   22  A    between atoms: _50  and  _51
REMARK   23  A    between atoms: _54  and  _56
REMARK   24  A    between atoms: _56  and  _57
REMARK   25  A    between atoms: _59  and  _61
REMARK   26  A    between atoms: _61  and  _62
REMARK   27  A    between atoms: _65  and  _67
REMARK   28  A    between atoms: _67  and  _68
REMARK   29  A    between atoms: _67  and  _70
REMARK   30  A    between atoms: _70  and  _71
REMARK   31  A    between atoms: _74  and  _76
REMARK   32  A    between atoms: _76  and  _77
REMARK   33  A    between atoms: _76  and  _79
REMARK   34  A    between atoms: _79  and  _80
REMARK   35  A    between atoms: _83  and  _85
REMARK   36  A    between atoms: _85  and  _86
REMARK   37  A    between atoms: _85  and  _88
REMARK   38  A    between atoms: _88  and  _89
REMARK   39  A    between atoms: _92  and  _94
REMARK   40  A    between atoms: _94  and  _95
REMARK   41  A    between atoms: _94  and  _97
REMARK   42  A    between atoms: _100  and  _102
REMARK   43  A    between atoms: _102  and  _103
REMARK   44  A    between atoms: _102  and  _105
REMARK   45  A    between atoms: _105  and  _106
REMARK   46  A    between atoms: _106  and  _107
REMARK   47  A    between atoms: _107  and  _108
REMARK   48  A    between atoms: _117  and  _119
REMARK   49  A    between atoms: _119  and  _120
REMARK   50  A    between atoms: _119  and  _122
REMARK   51  A    between atoms: _122  and  _123
REMARK   52  A    between atoms: _123  and  _124
REMARK   53  A    between atoms: _126  and  _128
REMARK   54  A    between atoms: _128  and  _129
REMARK   55  A    between atoms: _128  and  _131
REMARK   56  A    between atoms: _131  and  _132
REMARK   57  A    between atoms: _135  and  _137
REMARK   58  A    between atoms: _137  and  _138
REMARK   59  A    between atoms: _140  and  _142
REMARK   60  A    between atoms: _142  and  _143
REMARK   61  A    between atoms: _145  and  _147
REMARK   62  A    between atoms: _147  and  _148
REMARK   63  A    between atoms: _147  and  _150
REMARK   64  A    between atoms: _150  and  _151
REMARK   65  A    between atoms: _154  and  _156
REMARK   66  A    between atoms: _156  and  _157
REMARK   67  A    between atoms: _159  and  _161
REMARK   68  A    between atoms: _161  and  _162
REMARK   69  A    between atoms: _164  and  _166
REMARK   70  A    between atoms: _166  and  _167
REMARK   71  A    between atoms: _166  and  _169
REMARK   72  A    between atoms: _169  and  _170
REMARK   73  A    between atoms: _176  and  _178
REMARK   74  A    between atoms: _178  and  _179
REMARK   75  A    between atoms: _178  and  _181
REMARK   76  A    between atoms: _184  and  _186
REMARK   77  A    between atoms: _186  and  _187
REMARK   78  A    between atoms: _186  and  _189
REMARK   79  A    between atoms: _192  and  _194
REMARK   80  A    between atoms: _194  and  _195
REMARK   81  A    between atoms: _194  and  _197
REMARK   82  A    between atoms: _197  and  _198
REMARK   83  A    between atoms: _198  and  _199
REMARK   84  A    between atoms: _204  and  _206
REMARK   85  A    between atoms: _206  and  _207
REMARK   86  A    between atoms: _206  and  _209
REMARK   87  A    between atoms: _209  and  _210
REMARK   88  A    between atoms: _213  and  _215
REMARK   89  A    between atoms: _215  and  _216
REMARK   90  A    between atoms: _215  and  _218
REMARK   91  A    between atoms: _218  and  _219
REMARK   92  A    between atoms: _223  and  _224
REMARK   93  A    between atoms: _229  and  _231
REMARK   94  A    between atoms: _231  and  _232
REMARK   95  A    between atoms: _235  and  _237
REMARK   96  A    between atoms: _237  and  _238
REMARK   97  A    between atoms: _237  and  _240
REMARK   98  A    between atoms: _240  and  _241
REMARK   99  A    between atoms: _246  and  _248
REMARK  100  A    between atoms: _248  and  _249
REMARK  101  A    between atoms: _248  and  _251
REMARK  102  A    between atoms: _251  and  _252
REMARK  103  A    between atoms: _255  and  _257
REMARK  104  A    between atoms: _257  and  _258
REMARK  105  A    between atoms: _257  and  _260
REMARK  106  A    between atoms: _260  and  _261
REMARK  107  A    between atoms: _264  and  _266
REMARK  108  A    between atoms: _266  and  _267
REMARK  109  A    between atoms: _269  and  _271
REMARK  110  A    between atoms: _271  and  _272
REMARK  111  A    between atoms: _271  and  _274
REMARK  112  A    between atoms: _274  and  _275
REMARK  113  A    between atoms: _275  and  _276
REMARK  114  A    between atoms: _276  and  _277
REMARK  115  A    between atoms: _286  and  _288
REMARK  116  A    between atoms: _288  and  _289
REMARK  117  A    between atoms: _288  and  _291
REMARK  118  A    between atoms: _291  and  _292
REMARK  119  A    between atoms: _292  and  _293
REMARK  120  A    between atoms: _293  and  _294
REMARK  121  A    between atoms: _303  and  _305
REMARK  122  A    between atoms: _305  and  _306
REMARK  123  A    between atoms: _305  and  _308
REMARK  124  A    between atoms: _308  and  _309
REMARK  125  A    between atoms: _312  and  _314
REMARK  126  A    between atoms: _314  and  _315
REMARK  127  A    between atoms: _314  and  _317
REMARK  128  A    between atoms: _317  and  _318
REMARK  129  A    between atoms: _321  and  _323
REMARK  130  A    between atoms: _323  and  _324
REMARK  131  A    between atoms: _323  and  _326
REMARK  132  A    between atoms: _326  and  _327
REMARK  133  A    between atoms: _330  and  _332
REMARK  134  A    between atoms: _332  and  _333
REMARK  135  A    between atoms: _332  and  _335
REMARK  136  A    between atoms: _335  and  _336
REMARK  137  A    between atoms: _339  and  _341
REMARK  138  A    between atoms: _341  and  _342
REMARK  139  A    between atoms: _344  and  _346
REMARK  140  A    between atoms: _346  and  _347
REMARK  141  A    between atoms: _350  and  _352
REMARK  142  A    between atoms: _352  and  _353
REMARK  143  A    between atoms: _352  and  _355
REMARK  144  A    between atoms: _355  and  _356
REMARK  145  A    between atoms: _359  and  _361
REMARK  146  A    between atoms: _361  and  _362
REMARK  147  A    between atoms: _361  and  _364
REMARK  148  A    between atoms: _364  and  _365
REMARK  149  A    between atoms: _368  and  _370
REMARK  150  A    between atoms: _370  and  _371
REMARK  151  A    between atoms: _370  and  _373
REMARK  152  A    between atoms: _373  and  _374
REMARK  153  A    between atoms: _377  and  _379
REMARK  154  A    between atoms: _379  and  _380
REMARK  155  A    between atoms: _379  and  _382
REMARK  156  A    between atoms: _385  and  _387
REMARK  157  A    between atoms: _387  and  _388
REMARK  158  A    between atoms: _387  and  _390
REMARK  159  A    between atoms: _390  and  _391
REMARK  160  A    between atoms: _394  and  _396
REMARK  161  A    between atoms: _396  and  _397
REMARK  162  A    between atoms: _396  and  _399
REMARK  163  A    between atoms: _399  and  _400
REMARK  164  A    between atoms: _400  and  _401
REMARK  165  A    between atoms: _401  and  _402
REMARK  166  A    between atoms: _411  and  _413
REMARK  167  A    between atoms: _413  and  _414
REMARK  168  A    between atoms: _413  and  _416
REMARK  169  A    between atoms: _416  and  _417
REMARK  170  A    between atoms: _417  and  _418
REMARK  171  A    between atoms: _420  and  _422
REMARK  172  A    between atoms: _422  and  _423
REMARK  173  A    between atoms: _422  and  _425
REMARK  174  A    between atoms: _425  and  _426
REMARK  175  A    between atoms: _429  and  _431
REMARK  176  A    between atoms: _431  and  _432
REMARK  177  A    between atoms: _434  and  _436
REMARK  178  A    between atoms: _436  and  _437
REMARK  179  A    between atoms: _439  and  _441
REMARK  180  A    between atoms: _441  and  _442
REMARK  181  A    between atoms: _441  and  _444
REMARK  182  A    between atoms: _444  and  _445
REMARK  183  A    between atoms: _448  and  _450
REMARK  184  A    between atoms: _450  and  _451
REMARK  185  A    between atoms: _453  and  _455
REMARK  186  A    between atoms: _455  and  _456
REMARK  187  A    between atoms: _458  and  _460
REMARK  188  A    between atoms: _460  and  _461
REMARK  189  A    between atoms: _460  and  _463
REMARK  190  A    between atoms: _463  and  _464
REMARK  191  A    between atoms: _470  and  _472
REMARK  192  A    between atoms: _472  and  _473
REMARK  193  A    between atoms: _472  and  _475
REMARK  194  A    between atoms: _478  and  _480
REMARK  195  A    between atoms: _480  and  _481
REMARK  196  A    between atoms: _480  and  _483
REMARK  197  A    between atoms: _486  and  _488
REMARK  198  A    between atoms: _488  and  _489
REMARK  199  A    between atoms: _488  and  _491
REMARK  200  A    between atoms: _491  and  _492
REMARK  201  A    between atoms: _495  and  _497
REMARK  202  A    between atoms: _497  and  _498
REMARK  203  A    between atoms: _497  and  _500
REMARK  204  A    between atoms: _500  and  _501
REMARK  205  A    between atoms: _505  and  _506
REMARK  206  A    between atoms: _511  and  _513
REMARK  207  A    between atoms: _513  and  _514
REMARK  208  A    between atoms: _517  and  _519
REMARK  209  A    between atoms: _519  and  _520
REMARK  210  A    between atoms: _519  and  _522
REMARK  211  A    between atoms: _522  and  _523
REMARK  212  A    between atoms: _528  and  _530
REMARK  213  A    between atoms: _530  and  _531
REMARK  214  A    between atoms: _530  and  _533
REMARK  215  A    between atoms: _533  and  _534
REMARK  216  A    between atoms: _537  and  _539
REMARK  217  A    between atoms: _539  and  _540
REMARK  218  A    between atoms: _539  and  _542
REMARK  219  A    between atoms: _542  and  _543
REMARK  220  A    between atoms: _546  and  _548
REMARK  221  A    between atoms: _548  and  _549
REMARK  222  A    between atoms: _551  and  _553
REMARK  223  A    between atoms: _553  and  _554
REMARK  224  A    between atoms: _553  and  _556
REMARK  225  A    between atoms: _556  and  _557
REMARK  226  A    between atoms: _557  and  _558
REMARK  227  A    between atoms: _558  and  _559
REMARK  228  A    between atoms: _568  and  _570
REMARK  229  A    between atoms: _570  and  _571
REMARK  230  A    between atoms: _570  and  _573
REMARK  231  A    between atoms: _573  and  _574
REMARK                            x       y       z     vdW  Elec       q    Type
REMARK                         _______ _______ _______ _____ _____    ______ ____
ROOT
ATOM      1  O   HOH     1      17.310 -12.584  -0.174  0.00  0.00    +0.000 OA
ENDROOT
TORSDOF 0
REMARK  Name = ../refined-set-2016/2p3a/2p3a_pocket.pdb
REMARK  231 active torsions:
REMARK  status: ('A' for Active; 'I' for Inactive)
REMARK    1  A    between atoms: _1  and  _3
REMARK    2  A    between atoms: _3  and  _4
REMARK    3  A    between atoms: _3  and  _6
REMARK    4  A    between atoms: _6  and  _7
REMARK    5  A    between atoms: _7  and  _8
REMARK    6  A    between atoms: _8  and  _9
REMARK    7  A    between atoms: _18  and  _20
REMARK    8  A    between atoms: _20  and  _21
REMARK    9  A    between atoms: _20  and  _23
REMARK   10  A    between atoms: _23  and  _24
REMARK   11  A    between atoms: _27  and  _29
REMARK   12  A    between atoms: _29  and  _30
REMARK   13  A    between atoms: _29  and  _32
REMARK   14  A    between atoms: _32  and  _33
REMARK   15  A    between atoms: _36  and  _38
REMARK   16  A    between atoms: _38  and  _39
REMARK   17  A    between atoms: _38  and  _41
REMARK   18  A    between atoms: _41  and  _42
REMARK   19  A    between atoms: _45  and  _47
REMARK   20  A    between atoms: _47  and  _48
REMARK   21  A    between atoms: _47  and  _50
REMARK   22  A    between atoms: _50  and  _51
REMARK   23  A    between atoms: _54  and  _56
REMARK   24  A    between atoms: _56  and  _57
REMARK   25  A    between atoms: _59  and  _61
REMARK   26  A    between atoms: _61  and  _62
REMARK   27  A    between atoms: _65  and  _67
REMARK   28  A    between atoms: _67  and  _68
REMARK   29  A    between atoms: _67  and  _70
REMARK   30  A    between atoms: _70  and  _71
REMARK   31  A    between atoms: _74  and  _76
REMARK   32  A    between atoms: _76  and  _77
REMARK   33  A    between atoms: _76  and  _79
REMARK   34  A    between atoms: _79  and  _80
REMARK   35  A    between atoms: _83  and  _85
REMARK   36  A    between atoms: _85  and  _86
REMARK   37  A    between atoms: _85  and  _88
REMARK   38  A    between atoms: _88  and  _89
REMARK   39  A    between atoms: _92  and  _94
REMARK   40  A    between atoms: _94  and  _95
REMARK   41  A    between atoms: _94  and  _97
REMARK   42  A    between atoms: _100  and  _102
REMARK   43  A    between atoms: _102  and  _103
REMARK   44  A    between atoms: _102  and  _105
REMARK   45  A    between atoms: _105  and  _106
REMARK   46  A    between atoms: _106  and  _107
REMARK   47  A    between atoms: _107  and  _108
REMARK   48  A    between atoms: _117  and  _119
REMARK   49  A    between atoms: _119  and  _120
REMARK   50  A    between atoms: _119  and  _122
REMARK   51  A    between atoms: _122  and  _123
REMARK   52  A    between atoms: _123  and  _124
REMARK   53  A    between atoms: _126  and  _128
REMARK   54  A    between atoms: _128  and  _129
REMARK   55  A    between atoms: _128  and  _131
REMARK   56  A    between atoms: _131  and  _132
REMARK   57  A    between atoms: _135  and  _137
REMARK   58  A    between atoms: _137  and  _138
REMARK   59  A    between atoms: _140  and  _142
REMARK   60  A    between atoms: _142  and  _143
REMARK   61  A    between atoms: _145  and  _147
REMARK   62  A    between atoms: _147  and  _148
REMARK   63  A    between atoms: _147  and  _150
REMARK   64  A    between atoms: _150  and  _151
REMARK   65  A    between atoms: _154  and  _156
REMARK   66  A    between atoms: _156  and  _157
REMARK   67  A    between atoms: _159  and  _161
REMARK   68  A    between atoms: _161  and  _162
REMARK   69  A    between atoms: _164  and  _166
REMARK   70  A    between atoms: _166  and  _167
REMARK   71  A    between atoms: _166  and  _169
REMARK   72  A    between atoms: _169  and  _170
REMARK   73  A    between atoms: _176  and  _178
REMARK   74  A    between atoms: _178  and  _179
REMARK   75  A    between atoms: _178  and  _181
REMARK   76  A    between atoms: _184  and  _186
REMARK   77  A    between atoms: _186  and  _187
REMARK   78  A    between atoms: _186  and  _189
REMARK   79  A    between atoms: _192  and  _194
REMARK   80  A    between atoms: _194  and  _195
REMARK   81  A    between atoms: _194  and  _197
REMARK   82  A    between atoms: _197  and  _198
REMARK   83  A    between atoms: _198  and  _199
REMARK   84  A    between atoms: _204  and  _206
REMARK   85  A    between atoms: _206  and  _207
REMARK   86  A    between atoms: _206  and  _209
REMARK   87  A    between atoms: _209  and  _210
REMARK   88  A    between atoms: _213  and  _215
REMARK   89  A    between atoms: _215  and  _216
REMARK   90  A    between atoms: _215  and  _218
REMARK   91  A    between atoms: _218  and  _219
REMARK   92  A    between atoms: _223  and  _224
REMARK   93  A    between atoms: _229  and  _231
REMARK   94  A    between atoms: _231  and  _232
REMARK   95  A    between atoms: _235  and  _237
REMARK   96  A    between atoms: _237  and  _238
REMARK   97  A    between atoms: _237  and  _240
REMARK   98  A    between atoms: _240  and  _241
REMARK   99  A    between atoms: _246  and  _248
REMARK  100  A    between atoms: _248  and  _249
REMARK  101  A    between atoms: _248  and  _251
REMARK  102  A    between atoms: _251  and  _252
REMARK  103  A    between atoms: _255  and  _257
REMARK  104  A    between atoms: _257  and  _258
REMARK  105  A    between atoms: _257  and  _260
REMARK  106  A    between atoms: _260  and  _261
REMARK  107  A    between atoms: _264  and  _266
REMARK  108  A    between atoms: _266  and  _267
REMARK  109  A    between atoms: _269  and  _271
REMARK  110  A    between atoms: _271  and  _272
REMARK  111  A    between atoms: _271  and  _274
REMARK  112  A    between atoms: _274  and  _275
REMARK  113  A    between atoms: _275  and  _276
REMARK  114  A    between atoms: _276  and  _277
REMARK  115  A    between atoms: _286  and  _288
REMARK  116  A    between atoms: _288  and  _289
REMARK  117  A    between atoms: _288  and  _291
REMARK  118  A    between atoms: _291  and  _292
REMARK  119  A    between atoms: _292  and  _293
REMARK  120  A    between atoms: _293  and  _294
REMARK  121  A    between atoms: _303  and  _305
REMARK  122  A    between atoms: _305  and  _306
REMARK  123  A    between atoms: _305  and  _308
REMARK  124  A    between atoms: _308  and  _309
REMARK  125  A    between atoms: _312  and  _314
REMARK  126  A    between atoms: _314  and  _315
REMARK  127  A    between atoms: _314  and  _317
REMARK  128  A    between atoms: _317  and  _318
REMARK  129  A    between atoms: _321  and  _323
REMARK  130  A    between atoms: _323  and  _324
REMARK  131  A    between atoms: _323  and  _326
REMARK  132  A    between atoms: _326  and  _327
REMARK  133  A    between atoms: _330  and  _332
REMARK  134  A    between atoms: _332  and  _333
REMARK  135  A    between atoms: _332  and  _335
REMARK  136  A    between atoms: _335  and  _336
REMARK  137  A    between atoms: _339  and  _341
REMARK  138  A    between atoms: _341  and  _342
REMARK  139  A    between atoms: _344  and  _346
REMARK  140  A    between atoms: _346  and  _347
REMARK  141  A    between atoms: _350  and  _352
REMARK  142  A    between atoms: _352  and  _353
REMARK  143  A    between atoms: _352  and  _355
REMARK  144  A    between atoms: _355  and  _356
REMARK  145  A    between atoms: _359  and  _361
REMARK  146  A    between atoms: _361  and  _362
REMARK  147  A    between atoms: _361  and  _364
REMARK  148  A    between atoms: _364  and  _365
REMARK  149  A    between atoms: _368  and  _370
REMARK  150  A    between atoms: _370  and  _371
REMARK  151  A    between atoms: _370  and  _373
REMARK  152  A    between atoms: _373  and  _374
REMARK  153  A    between atoms: _377  and  _379
REMARK  154  A    between atoms: _379  and  _380
REMARK  155  A    between atoms: _379  and  _382
REMARK  156  A    between atoms: _385  and  _387
REMARK  157  A    between atoms: _387  and  _388
REMARK  158  A    between atoms: _387  and  _390
REMARK  159  A    between atoms: _390  and  _391
REMARK  160  A    between atoms: _394  and  _396
REMARK  161  A    between atoms: _396  and  _397
REMARK  162  A    between atoms: _396  and  _399
REMARK  163  A    between atoms: _399  and  _400
REMARK  164  A    between atoms: _400  and  _401
REMARK  165  A    between atoms: _401  and  _402
REMARK  166  A    between atoms: _411  and  _413
REMARK  167  A    between atoms: _413  and  _414
REMARK  168  A    between atoms: _413  and  _416
REMARK  169  A    between atoms: _416  and  _417
REMARK  170  A    between atoms: _417  and  _418
REMARK  171  A    between atoms: _420  and  _422
REMARK  172  A    between atoms: _422  and  _423
REMARK  173  A    between atoms: _422  and  _425
REMARK  174  A    between atoms: _425  and  _426
REMARK  175  A    between atoms: _429  and  _431
REMARK  176  A    between atoms: _431  and  _432
REMARK  177  A    between atoms: _434  and  _436
REMARK  178  A    between atoms: _436  and  _437
REMARK  179  A    between atoms: _439  and  _441
REMARK  180  A    between atoms: _441  and  _442
REMARK  181  A    between atoms: _441  and  _444
REMARK  182  A    between atoms: _444  and  _445
REMARK  183  A    between atoms: _448  and  _450
REMARK  184  A    between atoms: _450  and  _451
REMARK  185  A    between atoms: _453  and  _455
REMARK  186  A    between atoms: _455  and  _456
REMARK  187  A    between atoms: _458  and  _460
REMARK  188  A    between atoms: _460  and  _461
REMARK  189  A    between atoms: _460  and  _463
REMARK  190  A    between atoms: _463  and  _464
REMARK  191  A    between atoms: _470  and  _472
REMARK  192  A    between atoms: _472  and  _473
REMARK  193  A    between atoms: _472  and  _475
REMARK  194  A    between atoms: _478  and  _480
REMARK  195  A    between atoms: _480  and  _481
REMARK  196  A    between atoms: _480  and  _483
REMARK  197  A    between atoms: _486  and  _488
REMARK  198  A    between atoms: _488  and  _489
REMARK  199  A    between atoms: _488  and  _491
REMARK  200  A    between atoms: _491  and  _492
REMARK  201  A    between atoms: _495  and  _497
REMARK  202  A    between atoms: _497  and  _498
REMARK  203  A    between atoms: _497  and  _500
REMARK  204  A    between atoms: _500  and  _501
REMARK  205  A    between atoms: _505  and  _506
REMARK  206  A    between atoms: _511  and  _513
REMARK  207  A    between atoms: _513  and  _514
REMARK  208  A    between atoms: _517  and  _519
REMARK  209  A    between atoms: _519  and  _520
REMARK  210  A    between atoms: _519  and  _522
REMARK  211  A    between atoms: _522  and  _523
REMARK  212  A    between atoms: _528  and  _530
REMARK  213  A    between atoms: _530  and  _531
REMARK  214  A    between atoms: _530  and  _533
REMARK  215  A    between atoms: _533  and  _534
REMARK  216  A    between atoms: _537  and  _539
REMARK  217  A    between atoms: _539  and  _540
REMARK  218  A    between atoms: _539  and  _542
REMARK  219  A    between atoms: _542  and  _543
REMARK  220  A    between atoms: _546  and  _548
REMARK  221  A    between atoms: _548  and  _549
REMARK  222  A    between atoms: _551  and  _553
REMARK  223  A    between atoms: _553  and  _554
REMARK  224  A    between atoms: _553  and  _556
REMARK  225  A    between atoms: _556  and  _557
REMARK  226  A    between atoms: _557  and  _558
REMARK  227  A    between atoms: _558  and  _559
REMARK  228  A    between atoms: _568  and  _570
REMARK  229  A    between atoms: _570  and  _571
REMARK  230  A    between atoms: _570  and  _573
REMARK  231  A    between atoms: _573  and  _574
REMARK                            x       y       z     vdW  Elec       q    Type
REMARK                         _______ _______ _______ _____ _____    ______ ____
ROOT
ATOM      1  O   HOH     1      18.302   1.656   8.434  0.00  0.00    +0.000 OA
ENDROOT
TORSDOF 0
REMARK  Name = ../refined-set-2016/2p3a/2p3a_pocket.pdb
REMARK  231 active torsions:
REMARK  status: ('A' for Active; 'I' for Inactive)
REMARK    1  A    between atoms: _1  and  _3
REMARK    2  A    between atoms: _3  and  _4
REMARK    3  A    between atoms: _3  and  _6
REMARK    4  A    between atoms: _6  and  _7
REMARK    5  A    between atoms: _7  and  _8
REMARK    6  A    between atoms: _8  and  _9
REMARK    7  A    between atoms: _18  and  _20
REMARK    8  A    between atoms: _20  and  _21
REMARK    9  A    between atoms: _20  and  _23
REMARK   10  A    between atoms: _23  and  _24
REMARK   11  A    between atoms: _27  and  _29
REMARK   12  A    between atoms: _29  and  _30
REMARK   13  A    between atoms: _29  and  _32
REMARK   14  A    between atoms: _32  and  _33
REMARK   15  A    between atoms: _36  and  _38
REMARK   16  A    between atoms: _38  and  _39
REMARK   17  A    between atoms: _38  and  _41
REMARK   18  A    between atoms: _41  and  _42
REMARK   19  A    between atoms: _45  and  _47
REMARK   20  A    between atoms: _47  and  _48
REMARK   21  A    between atoms: _47  and  _50
REMARK   22  A    between atoms: _50  and  _51
REMARK   23  A    between atoms: _54  and  _56
REMARK   24  A    between atoms: _56  and  _57
REMARK   25  A    between atoms: _59  and  _61
REMARK   26  A    between atoms: _61  and  _62
REMARK   27  A    between atoms: _65  and  _67
REMARK   28  A    between atoms: _67  and  _68
REMARK   29  A    between atoms: _67  and  _70
REMARK   30  A    between atoms: _70  and  _71
REMARK   31  A    between atoms: _74  and  _76
REMARK   32  A    between atoms: _76  and  _77
REMARK   33  A    between atoms: _76  and  _79
REMARK   34  A    between atoms: _79  and  _80
REMARK   35  A    between atoms: _83  and  _85
REMARK   36  A    between atoms: _85  and  _86
REMARK   37  A    between atoms: _85  and  _88
REMARK   38  A    between atoms: _88  and  _89
REMARK   39  A    between atoms: _92  and  _94
REMARK   40  A    between atoms: _94  and  _95
REMARK   41  A    between atoms: _94  and  _97
REMARK   42  A    between atoms: _100  and  _102
REMARK   43  A    between atoms: _102  and  _103
REMARK   44  A    between atoms: _102  and  _105
REMARK   45  A    between atoms: _105  and  _106
REMARK   46  A    between atoms: _106  and  _107
REMARK   47  A    between atoms: _107  and  _108
REMARK   48  A    between atoms: _117  and  _119
REMARK   49  A    between atoms: _119  and  _120
REMARK   50  A    between atoms: _119  and  _122
REMARK   51  A    between atoms: _122  and  _123
REMARK   52  A    between atoms: _123  and  _124
REMARK   53  A    between atoms: _126  and  _128
REMARK   54  A    between atoms: _128  and  _129
REMARK   55  A    between atoms: _128  and  _131
REMARK   56  A    between atoms: _131  and  _132
REMARK   57  A    between atoms: _135  and  _137
REMARK   58  A    between atoms: _137  and  _138
REMARK   59  A    between atoms: _140  and  _142
REMARK   60  A    between atoms: _142  and  _143
REMARK   61  A    between atoms: _145  and  _147
REMARK   62  A    between atoms: _147  and  _148
REMARK   63  A    between atoms: _147  and  _150
REMARK   64  A    between atoms: _150  and  _151
REMARK   65  A    between atoms: _154  and  _156
REMARK   66  A    between atoms: _156  and  _157
REMARK   67  A    between atoms: _159  and  _161
REMARK   68  A    between atoms: _161  and  _162
REMARK   69  A    between atoms: _164  and  _166
REMARK   70  A    between atoms: _166  and  _167
REMARK   71  A    between atoms: _166  and  _169
REMARK   72  A    between atoms: _169  and  _170
REMARK   73  A    between atoms: _176  and  _178
REMARK   74  A    between atoms: _178  and  _179
REMARK   75  A    between atoms: _178  and  _181
REMARK   76  A    between atoms: _184  and  _186
REMARK   77  A    between atoms: _186  and  _187
REMARK   78  A    between atoms: _186  and  _189
REMARK   79  A    between atoms: _192  and  _194
REMARK   80  A    between atoms: _194  and  _195
REMARK   81  A    between atoms: _194  and  _197
REMARK   82  A    between atoms: _197  and  _198
REMARK   83  A    between atoms: _198  and  _199
REMARK   84  A    between atoms: _204  and  _206
REMARK   85  A    between atoms: _206  and  _207
REMARK   86  A    between atoms: _206  and  _209
REMARK   87  A    between atoms: _209  and  _210
REMARK   88  A    between atoms: _213  and  _215
REMARK   89  A    between atoms: _215  and  _216
REMARK   90  A    between atoms: _215  and  _218
REMARK   91  A    between atoms: _218  and  _219
REMARK   92  A    between atoms: _223  and  _224
REMARK   93  A    between atoms: _229  and  _231
REMARK   94  A    between atoms: _231  and  _232
REMARK   95  A    between atoms: _235  and  _237
REMARK   96  A    between atoms: _237  and  _238
REMARK   97  A    between atoms: _237  and  _240
REMARK   98  A    between atoms: _240  and  _241
REMARK   99  A    between atoms: _246  and  _248
REMARK  100  A    between atoms: _248  and  _249
REMARK  101  A    between atoms: _248  and  _251
REMARK  102  A    between atoms: _251  and  _252
REMARK  103  A    between atoms: _255  and  _257
REMARK  104  A    between atoms: _257  and  _258
REMARK  105  A    between atoms: _257  and  _260
REMARK  106  A    between atoms: _260  and  _261
REMARK  107  A    between atoms: _264  and  _266
REMARK  108  A    between atoms: _266  and  _267
REMARK  109  A    between atoms: _269  and  _271
REMARK  110  A    between atoms: _271  and  _272
REMARK  111  A    between atoms: _271  and  _274
REMARK  112  A    between atoms: _274  and  _275
REMARK  113  A    between atoms: _275  and  _276
REMARK  114  A    between atoms: _276  and  _277
REMARK  115  A    between atoms: _286  and  _288
REMARK  116  A    between atoms: _288  and  _289
REMARK  117  A    between atoms: _288  and  _291
REMARK  118  A    between atoms: _291  and  _292
REMARK  119  A    between atoms: _292  and  _293
REMARK  120  A    between atoms: _293  and  _294
REMARK  121  A    between atoms: _303  and  _305
REMARK  122  A    between atoms: _305  and  _306
REMARK  123  A    between atoms: _305  and  _308
REMARK  124  A    between atoms: _308  and  _309
REMARK  125  A    between atoms: _312  and  _314
REMARK  126  A    between atoms: _314  and  _315
REMARK  127  A    between atoms: _314  and  _317
REMARK  128  A    between atoms: _317  and  _318
REMARK  129  A    between atoms: _321  and  _323
REMARK  130  A    between atoms: _323  and  _324
REMARK  131  A    between atoms: _323  and  _326
REMARK  132  A    between atoms: _326  and  _327
REMARK  133  A    between atoms: _330  and  _332
REMARK  134  A    between atoms: _332  and  _333
REMARK  135  A    between atoms: _332  and  _335
REMARK  136  A    between atoms: _335  and  _336
REMARK  137  A    between atoms: _339  and  _341
REMARK  138  A    between atoms: _341  and  _342
REMARK  139  A    between atoms: _344  and  _346
REMARK  140  A    between atoms: _346  and  _347
REMARK  141  A    between atoms: _350  and  _352
REMARK  142  A    between atoms: _352  and  _353
REMARK  143  A    between atoms: _352  and  _355
REMARK  144  A    between atoms: _355  and  _356
REMARK  145  A    between atoms: _359  and  _361
REMARK  146  A    between atoms: _361  and  _362
REMARK  147  A    between atoms: _361  and  _364
REMARK  148  A    between atoms: _364  and  _365
REMARK  149  A    between atoms: _368  and  _370
REMARK  150  A    between atoms: _370  and  _371
REMARK  151  A    between atoms: _370  and  _373
REMARK  152  A    between atoms: _373  and  _374
REMARK  153  A    between atoms: _377  and  _379
REMARK  154  A    between atoms: _379  and  _380
REMARK  155  A    between atoms: _379  and  _382
REMARK  156  A    between atoms: _385  and  _387
REMARK  157  A    between atoms: _387  and  _388
REMARK  158  A    between atoms: _387  and  _390
REMARK  159  A    between atoms: _390  and  _391
REMARK  160  A    between atoms: _394  and  _396
REMARK  161  A    between atoms: _396  and  _397
REMARK  162  A    between atoms: _396  and  _399
REMARK  163  A    between atoms: _399  and  _400
REMARK  164  A    between atoms: _400  and  _401
REMARK  165  A    between atoms: _401  and  _402
REMARK  166  A    between atoms: _411  and  _413
REMARK  167  A    between atoms: _413  and  _414
REMARK  168  A    between atoms: _413  and  _416
REMARK  169  A    between atoms: _416  and  _417
REMARK  170  A    between atoms: _417  and  _418
REMARK  171  A    between atoms: _420  and  _422
REMARK  172  A    between atoms: _422  and  _423
REMARK  173  A    between atoms: _422  and  _425
REMARK  174  A    between atoms: _425  and  _426
REMARK  175  A    between atoms: _429  and  _431
REMARK  176  A    between atoms: _431  and  _432
REMARK  177  A    between atoms: _434  and  _436
REMARK  178  A    between atoms: _436  and  _437
REMARK  179  A    between atoms: _439  and  _441
REMARK  180  A    between atoms: _441  and  _442
REMARK  181  A    between atoms: _441  and  _444
REMARK  182  A    between atoms: _444  and  _445
REMARK  183  A    between atoms: _448  and  _450
REMARK  184  A    between atoms: _450  and  _451
REMARK  185  A    between atoms: _453  and  _455
REMARK  186  A    between atoms: _455  and  _456
REMARK  187  A    between atoms: _458  and  _460
REMARK  188  A    between atoms: _460  and  _461
REMARK  189  A    between atoms: _460  and  _463
REMARK  190  A    between atoms: _463  and  _464
REMARK  191  A    between atoms: _470  and  _472
REMARK  192  A    between atoms: _472  and  _473
REMARK  193  A    between atoms: _472  and  _475
REMARK  194  A    between atoms: _478  and  _480
REMARK  195  A    between atoms: _480  and  _481
REMARK  196  A    between atoms: _480  and  _483
REMARK  197  A    between atoms: _486  and  _488
REMARK  198  A    between atoms: _488  and  _489
REMARK  199  A    between atoms: _488  and  _491
REMARK  200  A    between atoms: _491  and  _492
REMARK  201  A    between atoms: _495  and  _497
REMARK  202  A    between atoms: _497  and  _498
REMARK  203  A    between atoms: _497  and  _500
REMARK  204  A    between atoms: _500  and  _501
REMARK  205  A    between atoms: _505  and  _506
REMARK  206  A    between atoms: _511  and  _513
REMARK  207  A    between atoms: _513  and  _514
REMARK  208  A    between atoms: _517  and  _519
REMARK  209  A    between atoms: _519  and  _520
REMARK  210  A    between atoms: _519  and  _522
REMARK  211  A    between atoms: _522  and  _523
REMARK  212  A    between atoms: _528  and  _530
REMARK  213  A    between atoms: _530  and  _531
REMARK  214  A    between atoms: _530  and  _533
REMARK  215  A    between atoms: _533  and  _534
REMARK  216  A    between atoms: _537  and  _539
REMARK  217  A    between atoms: _539  and  _540
REMARK  218  A    between atoms: _539  and  _542
REMARK  219  A    between atoms: _542  and  _543
REMARK  220  A    between atoms: _546  and  _548
REMARK  221  A    between atoms: _548  and  _549
REMARK  222  A    between atoms: _551  and  _553
REMARK  223  A    between atoms: _553  and  _554
REMARK  224  A    between atoms: _553  and  _556
REMARK  225  A    between atoms: _556  and  _557
REMARK  226  A    between atoms: _557  and  _558
REMARK  227  A    between atoms: _558  and  _559
REMARK  228  A    between atoms: _568  and  _570
REMARK  229  A    between atoms: _570  and  _571
REMARK  230  A    between atoms: _570  and  _573
REMARK  231  A    between atoms: _573  and  _574
REMARK                            x       y       z     vdW  Elec       q    Type
REMARK                         _______ _______ _______ _____ _____    ______ ____
ROOT
ATOM      1  O   HOH     1      19.572  -7.559  -3.027  0.00  0.00    +0.000 OA
ENDROOT
TORSDOF 0
REMARK  Name = ../refined-set-2016/2p3a/2p3a_pocket.pdb
REMARK  231 active torsions:
REMARK  status: ('A' for Active; 'I' for Inactive)
REMARK    1  A    between atoms: _1  and  _3
REMARK    2  A    between atoms: _3  and  _4
REMARK    3  A    between atoms: _3  and  _6
REMARK    4  A    between atoms: _6  and  _7
REMARK    5  A    between atoms: _7  and  _8
REMARK    6  A    between atoms: _8  and  _9
REMARK    7  A    between atoms: _18  and  _20
REMARK    8  A    between atoms: _20  and  _21
REMARK    9  A    between atoms: _20  and  _23
REMARK   10  A    between atoms: _23  and  _24
REMARK   11  A    between atoms: _27  and  _29
REMARK   12  A    between atoms: _29  and  _30
REMARK   13  A    between atoms: _29  and  _32
REMARK   14  A    between atoms: _32  and  _33
REMARK   15  A    between atoms: _36  and  _38
REMARK   16  A    between atoms: _38  and  _39
REMARK   17  A    between atoms: _38  and  _41
REMARK   18  A    between atoms: _41  and  _42
REMARK   19  A    between atoms: _45  and  _47
REMARK   20  A    between atoms: _47  and  _48
REMARK   21  A    between atoms: _47  and  _50
REMARK   22  A    between atoms: _50  and  _51
REMARK   23  A    between atoms: _54  and  _56
REMARK   24  A    between atoms: _56  and  _57
REMARK   25  A    between atoms: _59  and  _61
REMARK   26  A    between atoms: _61  and  _62
REMARK   27  A    between atoms: _65  and  _67
REMARK   28  A    between atoms: _67  and  _68
REMARK   29  A    between atoms: _67  and  _70
REMARK   30  A    between atoms: _70  and  _71
REMARK   31  A    between atoms: _74  and  _76
REMARK   32  A    between atoms: _76  and  _77
REMARK   33  A    between atoms: _76  and  _79
REMARK   34  A    between atoms: _79  and  _80
REMARK   35  A    between atoms: _83  and  _85
REMARK   36  A    between atoms: _85  and  _86
REMARK   37  A    between atoms: _85  and  _88
REMARK   38  A    between atoms: _88  and  _89
REMARK   39  A    between atoms: _92  and  _94
REMARK   40  A    between atoms: _94  and  _95
REMARK   41  A    between atoms: _94  and  _97
REMARK   42  A    between atoms: _100  and  _102
REMARK   43  A    between atoms: _102  and  _103
REMARK   44  A    between atoms: _102  and  _105
REMARK   45  A    between atoms: _105  and  _106
REMARK   46  A    between atoms: _106  and  _107
REMARK   47  A    between atoms: _107  and  _108
REMARK   48  A    between atoms: _117  and  _119
REMARK   49  A    between atoms: _119  and  _120
REMARK   50  A    between atoms: _119  and  _122
REMARK   51  A    between atoms: _122  and  _123
REMARK   52  A    between atoms: _123  and  _124
REMARK   53  A    between atoms: _126  and  _128
REMARK   54  A    between atoms: _128  and  _129
REMARK   55  A    between atoms: _128  and  _131
REMARK   56  A    between atoms: _131  and  _132
REMARK   57  A    between atoms: _135  and  _137
REMARK   58  A    between atoms: _137  and  _138
REMARK   59  A    between atoms: _140  and  _142
REMARK   60  A    between atoms: _142  and  _143
REMARK   61  A    between atoms: _145  and  _147
REMARK   62  A    between atoms: _147  and  _148
REMARK   63  A    between atoms: _147  and  _150
REMARK   64  A    between atoms: _150  and  _151
REMARK   65  A    between atoms: _154  and  _156
REMARK   66  A    between atoms: _156  and  _157
REMARK   67  A    between atoms: _159  and  _161
REMARK   68  A    between atoms: _161  and  _162
REMARK   69  A    between atoms: _164  and  _166
REMARK   70  A    between atoms: _166  and  _167
REMARK   71  A    between atoms: _166  and  _169
REMARK   72  A    between atoms: _169  and  _170
REMARK   73  A    between atoms: _176  and  _178
REMARK   74  A    between atoms: _178  and  _179
REMARK   75  A    between atoms: _178  and  _181
REMARK   76  A    between atoms: _184  and  _186
REMARK   77  A    between atoms: _186  and  _187
REMARK   78  A    between atoms: _186  and  _189
REMARK   79  A    between atoms: _192  and  _194
REMARK   80  A    between atoms: _194  and  _195
REMARK   81  A    between atoms: _194  and  _197
REMARK   82  A    between atoms: _197  and  _198
REMARK   83  A    between atoms: _198  and  _199
REMARK   84  A    between atoms: _204  and  _206
REMARK   85  A    between atoms: _206  and  _207
REMARK   86  A    between atoms: _206  and  _209
REMARK   87  A    between atoms: _209  and  _210
REMARK   88  A    between atoms: _213  and  _215
REMARK   89  A    between atoms: _215  and  _216
REMARK   90  A    between atoms: _215  and  _218
REMARK   91  A    between atoms: _218  and  _219
REMARK   92  A    between atoms: _223  and  _224
REMARK   93  A    between atoms: _229  and  _231
REMARK   94  A    between atoms: _231  and  _232
REMARK   95  A    between atoms: _235  and  _237
REMARK   96  A    between atoms: _237  and  _238
REMARK   97  A    between atoms: _237  and  _240
REMARK   98  A    between atoms: _240  and  _241
REMARK   99  A    between atoms: _246  and  _248
REMARK  100  A    between atoms: _248  and  _249
REMARK  101  A    between atoms: _248  and  _251
REMARK  102  A    between atoms: _251  and  _252
REMARK  103  A    between atoms: _255  and  _257
REMARK  104  A    between atoms: _257  and  _258
REMARK  105  A    between atoms: _257  and  _260
REMARK  106  A    between atoms: _260  and  _261
REMARK  107  A    between atoms: _264  and  _266
REMARK  108  A    between atoms: _266  and  _267
REMARK  109  A    between atoms: _269  and  _271
REMARK  110  A    between atoms: _271  and  _272
REMARK  111  A    between atoms: _271  and  _274
REMARK  112  A    between atoms: _274  and  _275
REMARK  113  A    between atoms: _275  and  _276
REMARK  114  A    between atoms: _276  and  _277
REMARK  115  A    between atoms: _286  and  _288
REMARK  116  A    between atoms: _288  and  _289
REMARK  117  A    between atoms: _288  and  _291
REMARK  118  A    between atoms: _291  and  _292
REMARK  119  A    between atoms: _292  and  _293
REMARK  120  A    between atoms: _293  and  _294
REMARK  121  A    between atoms: _303  and  _305
REMARK  122  A    between atoms: _305  and  _306
REMARK  123  A    between atoms: _305  and  _308
REMARK  124  A    between atoms: _308  and  _309
REMARK  125  A    between atoms: _312  and  _314
REMARK  126  A    between atoms: _314  and  _315
REMARK  127  A    between atoms: _314  and  _317
REMARK  128  A    between atoms: _317  and  _318
REMARK  129  A    between atoms: _321  and  _323
REMARK  130  A    between atoms: _323  and  _324
REMARK  131  A    between atoms: _323  and  _326
REMARK  132  A    between atoms: _326  and  _327
REMARK  133  A    between atoms: _330  and  _332
REMARK  134  A    between atoms: _332  and  _333
REMARK  135  A    between atoms: _332  and  _335
REMARK  136  A    between atoms: _335  and  _336
REMARK  137  A    between atoms: _339  and  _341
REMARK  138  A    between atoms: _341  and  _342
REMARK  139  A    between atoms: _344  and  _346
REMARK  140  A    between atoms: _346  and  _347
REMARK  141  A    between atoms: _350  and  _352
REMARK  142  A    between atoms: _352  and  _353
REMARK  143  A    between atoms: _352  and  _355
REMARK  144  A    between atoms: _355  and  _356
REMARK  145  A    between atoms: _359  and  _361
REMARK  146  A    between atoms: _361  and  _362
REMARK  147  A    between atoms: _361  and  _364
REMARK  148  A    between atoms: _364  and  _365
REMARK  149  A    between atoms: _368  and  _370
REMARK  150  A    between atoms: _370  and  _371
REMARK  151  A    between atoms: _370  and  _373
REMARK  152  A    between atoms: _373  and  _374
REMARK  153  A    between atoms: _377  and  _379
REMARK  154  A    between atoms: _379  and  _380
REMARK  155  A    between atoms: _379  and  _382
REMARK  156  A    between atoms: _385  and  _387
REMARK  157  A    between atoms: _387  and  _388
REMARK  158  A    between atoms: _387  and  _390
REMARK  159  A    between atoms: _390  and  _391
REMARK  160  A    between atoms: _394  and  _396
REMARK  161  A    between atoms: _396  and  _397
REMARK  162  A    between atoms: _396  and  _399
REMARK  163  A    between atoms: _399  and  _400
REMARK  164  A    between atoms: _400  and  _401
REMARK  165  A    between atoms: _401  and  _402
REMARK  166  A    between atoms: _411  and  _413
REMARK  167  A    between atoms: _413  and  _414
REMARK  168  A    between atoms: _413  and  _416
REMARK  169  A    between atoms: _416  and  _417
REMARK  170  A    between atoms: _417  and  _418
REMARK  171  A    between atoms: _420  and  _422
REMARK  172  A    between atoms: _422  and  _423
REMARK  173  A    between atoms: _422  and  _425
REMARK  174  A    between atoms: _425  and  _426
REMARK  175  A    between atoms: _429  and  _431
REMARK  176  A    between atoms: _431  and  _432
REMARK  177  A    between atoms: _434  and  _436
REMARK  178  A    between atoms: _436  and  _437
REMARK  179  A    between atoms: _439  and  _441
REMARK  180  A    between atoms: _441  and  _442
REMARK  181  A    between atoms: _441  and  _444
REMARK  182  A    between atoms: _444  and  _445
REMARK  183  A    between atoms: _448  and  _450
REMARK  184  A    between atoms: _450  and  _451
REMARK  185  A    between atoms: _453  and  _455
REMARK  186  A    between atoms: _455  and  _456
REMARK  187  A    between atoms: _458  and  _460
REMARK  188  A    between atoms: _460  and  _461
REMARK  189  A    between atoms: _460  and  _463
REMARK  190  A    between atoms: _463  and  _464
REMARK  191  A    between atoms: _470  and  _472
REMARK  192  A    between atoms: _472  and  _473
REMARK  193  A    between atoms: _472  and  _475
REMARK  194  A    between atoms: _478  and  _480
REMARK  195  A    between atoms: _480  and  _481
REMARK  196  A    between atoms: _480  and  _483
REMARK  197  A    between atoms: _486  and  _488
REMARK  198  A    between atoms: _488  and  _489
REMARK  199  A    between atoms: _488  and  _491
REMARK  200  A    between atoms: _491  and  _492
REMARK  201  A    between atoms: _495  and  _497
REMARK  202  A    between atoms: _497  and  _498
REMARK  203  A    between atoms: _497  and  _500
REMARK  204  A    between atoms: _500  and  _501
REMARK  205  A    between atoms: _505  and  _506
REMARK  206  A    between atoms: _511  and  _513
REMARK  207  A    between atoms: _513  and  _514
REMARK  208  A    between atoms: _517  and  _519
REMARK  209  A    between atoms: _519  and  _520
REMARK  210  A    between atoms: _519  and  _522
REMARK  211  A    between atoms: _522  and  _523
REMARK  212  A    between atoms: _528  and  _530
REMARK  213  A    between atoms: _530  and  _531
REMARK  214  A    between atoms: _530  and  _533
REMARK  215  A    between atoms: _533  and  _534
REMARK  216  A    between atoms: _537  and  _539
REMARK  217  A    between atoms: _539  and  _540
REMARK  218  A    between atoms: _539  and  _542
REMARK  219  A    between atoms: _542  and  _543
REMARK  220  A    between atoms: _546  and  _548
REMARK  221  A    between atoms: _548  and  _549
REMARK  222  A    between atoms: _551  and  _553
REMARK  223  A    between atoms: _553  and  _554
REMARK  224  A    between atoms: _553  and  _556
REMARK  225  A    between atoms: _556  and  _557
REMARK  226  A    between atoms: _557  and  _558
REMARK  227  A    between atoms: _558  and  _559
REMARK  228  A    between atoms: _568  and  _570
REMARK  229  A    between atoms: _570  and  _571
REMARK  230  A    between atoms: _570  and  _573
REMARK  231  A    between atoms: _573  and  _574
REMARK                            x       y       z     vdW  Elec       q    Type
REMARK                         _______ _______ _______ _____ _____    ______ ____
ROOT
ATOM      1  O   HOH     1      17.516   4.660  12.300  0.00  0.00    +0.000 OA
ENDROOT
TORSDOF 0
REMARK  Name = ../refined-set-2016/2p3a/2p3a_pocket.pdb
REMARK  231 active torsions:
REMARK  status: ('A' for Active; 'I' for Inactive)
REMARK    1  A    between atoms: _1  and  _3
REMARK    2  A    between atoms: _3  and  _4
REMARK    3  A    between atoms: _3  and  _6
REMARK    4  A    between atoms: _6  and  _7
REMARK    5  A    between atoms: _7  and  _8
REMARK    6  A    between atoms: _8  and  _9
REMARK    7  A    between atoms: _18  and  _20
REMARK    8  A    between atoms: _20  and  _21
REMARK    9  A    between atoms: _20  and  _23
REMARK   10  A    between atoms: _23  and  _24
REMARK   11  A    between atoms: _27  and  _29
REMARK   12  A    between atoms: _29  and  _30
REMARK   13  A    between atoms: _29  and  _32
REMARK   14  A    between atoms: _32  and  _33
REMARK   15  A    between atoms: _36  and  _38
REMARK   16  A    between atoms: _38  and  _39
REMARK   17  A    between atoms: _38  and  _41
REMARK   18  A    between atoms: _41  and  _42
REMARK   19  A    between atoms: _45  and  _47
REMARK   20  A    between atoms: _47  and  _48
REMARK   21  A    between atoms: _47  and  _50
REMARK   22  A    between atoms: _50  and  _51
REMARK   23  A    between atoms: _54  and  _56
REMARK   24  A    between atoms: _56  and  _57
REMARK   25  A    between atoms: _59  and  _61
REMARK   26  A    between atoms: _61  and  _62
REMARK   27  A    between atoms: _65  and  _67
REMARK   28  A    between atoms: _67  and  _68
REMARK   29  A    between atoms: _67  and  _70
REMARK   30  A    between atoms: _70  and  _71
REMARK   31  A    between atoms: _74  and  _76
REMARK   32  A    between atoms: _76  and  _77
REMARK   33  A    between atoms: _76  and  _79
REMARK   34  A    between atoms: _79  and  _80
REMARK   35  A    between atoms: _83  and  _85
REMARK   36  A    between atoms: _85  and  _86
REMARK   37  A    between atoms: _85  and  _88
REMARK   38  A    between atoms: _88  and  _89
REMARK   39  A    between atoms: _92  and  _94
REMARK   40  A    between atoms: _94  and  _95
REMARK   41  A    between atoms: _94  and  _97
REMARK   42  A    between atoms: _100  and  _102
REMARK   43  A    between atoms: _102  and  _103
REMARK   44  A    between atoms: _102  and  _105
REMARK   45  A    between atoms: _105  and  _106
REMARK   46  A    between atoms: _106  and  _107
REMARK   47  A    between atoms: _107  and  _108
REMARK   48  A    between atoms: _117  and  _119
REMARK   49  A    between atoms: _119  and  _120
REMARK   50  A    between atoms: _119  and  _122
REMARK   51  A    between atoms: _122  and  _123
REMARK   52  A    between atoms: _123  and  _124
REMARK   53  A    between atoms: _126  and  _128
REMARK   54  A    between atoms: _128  and  _129
REMARK   55  A    between atoms: _128  and  _131
REMARK   56  A    between atoms: _131  and  _132
REMARK   57  A    between atoms: _135  and  _137
REMARK   58  A    between atoms: _137  and  _138
REMARK   59  A    between atoms: _140  and  _142
REMARK   60  A    between atoms: _142  and  _143
REMARK   61  A    between atoms: _145  and  _147
REMARK   62  A    between atoms: _147  and  _148
REMARK   63  A    between atoms: _147  and  _150
REMARK   64  A    between atoms: _150  and  _151
REMARK   65  A    between atoms: _154  and  _156
REMARK   66  A    between atoms: _156  and  _157
REMARK   67  A    between atoms: _159  and  _161
REMARK   68  A    between atoms: _161  and  _162
REMARK   69  A    between atoms: _164  and  _166
REMARK   70  A    between atoms: _166  and  _167
REMARK   71  A    between atoms: _166  and  _169
REMARK   72  A    between atoms: _169  and  _170
REMARK   73  A    between atoms: _176  and  _178
REMARK   74  A    between atoms: _178  and  _179
REMARK   75  A    between atoms: _178  and  _181
REMARK   76  A    between atoms: _184  and  _186
REMARK   77  A    between atoms: _186  and  _187
REMARK   78  A    between atoms: _186  and  _189
REMARK   79  A    between atoms: _192  and  _194
REMARK   80  A    between atoms: _194  and  _195
REMARK   81  A    between atoms: _194  and  _197
REMARK   82  A    between atoms: _197  and  _198
REMARK   83  A    between atoms: _198  and  _199
REMARK   84  A    between atoms: _204  and  _206
REMARK   85  A    between atoms: _206  and  _207
REMARK   86  A    between atoms: _206  and  _209
REMARK   87  A    between atoms: _209  and  _210
REMARK   88  A    between atoms: _213  and  _215
REMARK   89  A    between atoms: _215  and  _216
REMARK   90  A    between atoms: _215  and  _218
REMARK   91  A    between atoms: _218  and  _219
REMARK   92  A    between atoms: _223  and  _224
REMARK   93  A    between atoms: _229  and  _231
REMARK   94  A    between atoms: _231  and  _232
REMARK   95  A    between atoms: _235  and  _237
REMARK   96  A    between atoms: _237  and  _238
REMARK   97  A    between atoms: _237  and  _240
REMARK   98  A    between atoms: _240  and  _241
REMARK   99  A    between atoms: _246  and  _248
REMARK  100  A    between atoms: _248  and  _249
REMARK  101  A    between atoms: _248  and  _251
REMARK  102  A    between atoms: _251  and  _252
REMARK  103  A    between atoms: _255  and  _257
REMARK  104  A    between atoms: _257  and  _258
REMARK  105  A    between atoms: _257  and  _260
REMARK  106  A    between atoms: _260  and  _261
REMARK  107  A    between atoms: _264  and  _266
REMARK  108  A    between atoms: _266  and  _267
REMARK  109  A    between atoms: _269  and  _271
REMARK  110  A    between atoms: _271  and  _272
REMARK  111  A    between atoms: _271  and  _274
REMARK  112  A    between atoms: _274  and  _275
REMARK  113  A    between atoms: _275  and  _276
REMARK  114  A    between atoms: _276  and  _277
REMARK  115  A    between atoms: _286  and  _288
REMARK  116  A    between atoms: _288  and  _289
REMARK  117  A    between atoms: _288  and  _291
REMARK  118  A    between atoms: _291  and  _292
REMARK  119  A    between atoms: _292  and  _293
REMARK  120  A    between atoms: _293  and  _294
REMARK  121  A    between atoms: _303  and  _305
REMARK  122  A    between atoms: _305  and  _306
REMARK  123  A    between atoms: _305  and  _308
REMARK  124  A    between atoms: _308  and  _309
REMARK  125  A    between atoms: _312  and  _314
REMARK  126  A    between atoms: _314  and  _315
REMARK  127  A    between atoms: _314  and  _317
REMARK  128  A    between atoms: _317  and  _318
REMARK  129  A    between atoms: _321  and  _323
REMARK  130  A    between atoms: _323  and  _324
REMARK  131  A    between atoms: _323  and  _326
REMARK  132  A    between atoms: _326  and  _327
REMARK  133  A    between atoms: _330  and  _332
REMARK  134  A    between atoms: _332  and  _333
REMARK  135  A    between atoms: _332  and  _335
REMARK  136  A    between atoms: _335  and  _336
REMARK  137  A    between atoms: _339  and  _341
REMARK  138  A    between atoms: _341  and  _342
REMARK  139  A    between atoms: _344  and  _346
REMARK  140  A    between atoms: _346  and  _347
REMARK  141  A    between atoms: _350  and  _352
REMARK  142  A    between atoms: _352  and  _353
REMARK  143  A    between atoms: _352  and  _355
REMARK  144  A    between atoms: _355  and  _356
REMARK  145  A    between atoms: _359  and  _361
REMARK  146  A    between atoms: _361  and  _362
REMARK  147  A    between atoms: _361  and  _364
REMARK  148  A    between atoms: _364  and  _365
REMARK  149  A    between atoms: _368  and  _370
REMARK  150  A    between atoms: _370  and  _371
REMARK  151  A    between atoms: _370  and  _373
REMARK  152  A    between atoms: _373  and  _374
REMARK  153  A    between atoms: _377  and  _379
REMARK  154  A    between atoms: _379  and  _380
REMARK  155  A    between atoms: _379  and  _382
REMARK  156  A    between atoms: _385  and  _387
REMARK  157  A    between atoms: _387  and  _388
REMARK  158  A    between atoms: _387  and  _390
REMARK  159  A    between atoms: _390  and  _391
REMARK  160  A    between atoms: _394  and  _396
REMARK  161  A    between atoms: _396  and  _397
REMARK  162  A    between atoms: _396  and  _399
REMARK  163  A    between atoms: _399  and  _400
REMARK  164  A    between atoms: _400  and  _401
REMARK  165  A    between atoms: _401  and  _402
REMARK  166  A    between atoms: _411  and  _413
REMARK  167  A    between atoms: _413  and  _414
REMARK  168  A    between atoms: _413  and  _416
REMARK  169  A    between atoms: _416  and  _417
REMARK  170  A    between atoms: _417  and  _418
REMARK  171  A    between atoms: _420  and  _422
REMARK  172  A    between atoms: _422  and  _423
REMARK  173  A    between atoms: _422  and  _425
REMARK  174  A    between atoms: _425  and  _426
REMARK  175  A    between atoms: _429  and  _431
REMARK  176  A    between atoms: _431  and  _432
REMARK  177  A    between atoms: _434  and  _436
REMARK  178  A    between atoms: _436  and  _437
REMARK  179  A    between atoms: _439  and  _441
REMARK  180  A    between atoms: _441  and  _442
REMARK  181  A    between atoms: _441  and  _444
REMARK  182  A    between atoms: _444  and  _445
REMARK  183  A    between atoms: _448  and  _450
REMARK  184  A    between atoms: _450  and  _451
REMARK  185  A    between atoms: _453  and  _455
REMARK  186  A    between atoms: _455  and  _456
REMARK  187  A    between atoms: _458  and  _460
REMARK  188  A    between atoms: _460  and  _461
REMARK  189  A    between atoms: _460  and  _463
REMARK  190  A    between atoms: _463  and  _464
REMARK  191  A    between atoms: _470  and  _472
REMARK  192  A    between atoms: _472  and  _473
REMARK  193  A    between atoms: _472  and  _475
REMARK  194  A    between atoms: _478  and  _480
REMARK  195  A    between atoms: _480  and  _481
REMARK  196  A    between atoms: _480  and  _483
REMARK  197  A    between atoms: _486  and  _488
REMARK  198  A    between atoms: _488  and  _489
REMARK  199  A    between atoms: _488  and  _491
REMARK  200  A    between atoms: _491  and  _492
REMARK  201  A    between atoms: _495  and  _497
REMARK  202  A    between atoms: _497  and  _498
REMARK  203  A    between atoms: _497  and  _500
REMARK  204  A    between atoms: _500  and  _501
REMARK  205  A    between atoms: _505  and  _506
REMARK  206  A    between atoms: _511  and  _513
REMARK  207  A    between atoms: _513  and  _514
REMARK  208  A    between atoms: _517  and  _519
REMARK  209  A    between atoms: _519  and  _520
REMARK  210  A    between atoms: _519  and  _522
REMARK  211  A    between atoms: _522  and  _523
REMARK  212  A    between atoms: _528  and  _530
REMARK  213  A    between atoms: _530  and  _531
REMARK  214  A    between atoms: _530  and  _533
REMARK  215  A    between atoms: _533  and  _534
REMARK  216  A    between atoms: _537  and  _539
REMARK  217  A    between atoms: _539  and  _540
REMARK  218  A    between atoms: _539  and  _542
REMARK  219  A    between atoms: _542  and  _543
REMARK  220  A    between atoms: _546  and  _548
REMARK  221  A    between atoms: _548  and  _549
REMARK  222  A    between atoms: _551  and  _553
REMARK  223  A    between atoms: _553  and  _554
REMARK  224  A    between atoms: _553  and  _556
REMARK  225  A    between atoms: _556  and  _557
REMARK  226  A    between atoms: _557  and  _558
REMARK  227  A    between atoms: _558  and  _559
REMARK  228  A    between atoms: _568  and  _570
REMARK  229  A    between atoms: _570  and  _571
REMARK  230  A    between atoms: _570  and  _573
REMARK  231  A    between atoms: _573  and  _574
REMARK                            x       y       z     vdW  Elec       q    Type
REMARK                         _______ _______ _______ _____ _____    ______ ____
ROOT
ATOM      1  O   HOH     1      23.395   3.853  11.640  0.00  0.00    +0.000 OA
ENDROOT
TORSDOF 0
REMARK  Name = ../refined-set-2016/2p3a/2p3a_pocket.pdb
REMARK  231 active torsions:
REMARK  status: ('A' for Active; 'I' for Inactive)
REMARK    1  A    between atoms: _1  and  _3
REMARK    2  A    between atoms: _3  and  _4
REMARK    3  A    between atoms: _3  and  _6
REMARK    4  A    between atoms: _6  and  _7
REMARK    5  A    between atoms: _7  and  _8
REMARK    6  A    between atoms: _8  and  _9
REMARK    7  A    between atoms: _18  and  _20
REMARK    8  A    between atoms: _20  and  _21
REMARK    9  A    between atoms: _20  and  _23
REMARK   10  A    between atoms: _23  and  _24
REMARK   11  A    between atoms: _27  and  _29
REMARK   12  A    between atoms: _29  and  _30
REMARK   13  A    between atoms: _29  and  _32
REMARK   14  A    between atoms: _32  and  _33
REMARK   15  A    between atoms: _36  and  _38
REMARK   16  A    between atoms: _38  and  _39
REMARK   17  A    between atoms: _38  and  _41
REMARK   18  A    between atoms: _41  and  _42
REMARK   19  A    between atoms: _45  and  _47
REMARK   20  A    between atoms: _47  and  _48
REMARK   21  A    between atoms: _47  and  _50
REMARK   22  A    between atoms: _50  and  _51
REMARK   23  A    between atoms: _54  and  _56
REMARK   24  A    between atoms: _56  and  _57
REMARK   25  A    between atoms: _59  and  _61
REMARK   26  A    between atoms: _61  and  _62
REMARK   27  A    between atoms: _65  and  _67
REMARK   28  A    between atoms: _67  and  _68
REMARK   29  A    between atoms: _67  and  _70
REMARK   30  A    between atoms: _70  and  _71
REMARK   31  A    between atoms: _74  and  _76
REMARK   32  A    between atoms: _76  and  _77
REMARK   33  A    between atoms: _76  and  _79
REMARK   34  A    between atoms: _79  and  _80
REMARK   35  A    between atoms: _83  and  _85
REMARK   36  A    between atoms: _85  and  _86
REMARK   37  A    between atoms: _85  and  _88
REMARK   38  A    between atoms: _88  and  _89
REMARK   39  A    between atoms: _92  and  _94
REMARK   40  A    between atoms: _94  and  _95
REMARK   41  A    between atoms: _94  and  _97
REMARK   42  A    between atoms: _100  and  _102
REMARK   43  A    between atoms: _102  and  _103
REMARK   44  A    between atoms: _102  and  _105
REMARK   45  A    between atoms: _105  and  _106
REMARK   46  A    between atoms: _106  and  _107
REMARK   47  A    between atoms: _107  and  _108
REMARK   48  A    between atoms: _117  and  _119
REMARK   49  A    between atoms: _119  and  _120
REMARK   50  A    between atoms: _119  and  _122
REMARK   51  A    between atoms: _122  and  _123
REMARK   52  A    between atoms: _123  and  _124
REMARK   53  A    between atoms: _126  and  _128
REMARK   54  A    between atoms: _128  and  _129
REMARK   55  A    between atoms: _128  and  _131
REMARK   56  A    between atoms: _131  and  _132
REMARK   57  A    between atoms: _135  and  _137
REMARK   58  A    between atoms: _137  and  _138
REMARK   59  A    between atoms: _140  and  _142
REMARK   60  A    between atoms: _142  and  _143
REMARK   61  A    between atoms: _145  and  _147
REMARK   62  A    between atoms: _147  and  _148
REMARK   63  A    between atoms: _147  and  _150
REMARK   64  A    between atoms: _150  and  _151
REMARK   65  A    between atoms: _154  and  _156
REMARK   66  A    between atoms: _156  and  _157
REMARK   67  A    between atoms: _159  and  _161
REMARK   68  A    between atoms: _161  and  _162
REMARK   69  A    between atoms: _164  and  _166
REMARK   70  A    between atoms: _166  and  _167
REMARK   71  A    between atoms: _166  and  _169
REMARK   72  A    between atoms: _169  and  _170
REMARK   73  A    between atoms: _176  and  _178
REMARK   74  A    between atoms: _178  and  _179
REMARK   75  A    between atoms: _178  and  _181
REMARK   76  A    between atoms: _184  and  _186
REMARK   77  A    between atoms: _186  and  _187
REMARK   78  A    between atoms: _186  and  _189
REMARK   79  A    between atoms: _192  and  _194
REMARK   80  A    between atoms: _194  and  _195
REMARK   81  A    between atoms: _194  and  _197
REMARK   82  A    between atoms: _197  and  _198
REMARK   83  A    between atoms: _198  and  _199
REMARK   84  A    between atoms: _204  and  _206
REMARK   85  A    between atoms: _206  and  _207
REMARK   86  A    between atoms: _206  and  _209
REMARK   87  A    between atoms: _209  and  _210
REMARK   88  A    between atoms: _213  and  _215
REMARK   89  A    between atoms: _215  and  _216
REMARK   90  A    between atoms: _215  and  _218
REMARK   91  A    between atoms: _218  and  _219
REMARK   92  A    between atoms: _223  and  _224
REMARK   93  A    between atoms: _229  and  _231
REMARK   94  A    between atoms: _231  and  _232
REMARK   95  A    between atoms: _235  and  _237
REMARK   96  A    between atoms: _237  and  _238
REMARK   97  A    between atoms: _237  and  _240
REMARK   98  A    between atoms: _240  and  _241
REMARK   99  A    between atoms: _246  and  _248
REMARK  100  A    between atoms: _248  and  _249
REMARK  101  A    between atoms: _248  and  _251
REMARK  102  A    between atoms: _251  and  _252
REMARK  103  A    between atoms: _255  and  _257
REMARK  104  A    between atoms: _257  and  _258
REMARK  105  A    between atoms: _257  and  _260
REMARK  106  A    between atoms: _260  and  _261
REMARK  107  A    between atoms: _264  and  _266
REMARK  108  A    between atoms: _266  and  _267
REMARK  109  A    between atoms: _269  and  _271
REMARK  110  A    between atoms: _271  and  _272
REMARK  111  A    between atoms: _271  and  _274
REMARK  112  A    between atoms: _274  and  _275
REMARK  113  A    between atoms: _275  and  _276
REMARK  114  A    between atoms: _276  and  _277
REMARK  115  A    between atoms: _286  and  _288
REMARK  116  A    between atoms: _288  and  _289
REMARK  117  A    between atoms: _288  and  _291
REMARK  118  A    between atoms: _291  and  _292
REMARK  119  A    between atoms: _292  and  _293
REMARK  120  A    between atoms: _293  and  _294
REMARK  121  A    between atoms: _303  and  _305
REMARK  122  A    between atoms: _305  and  _306
REMARK  123  A    between atoms: _305  and  _308
REMARK  124  A    between atoms: _308  and  _309
REMARK  125  A    between atoms: _312  and  _314
REMARK  126  A    between atoms: _314  and  _315
REMARK  127  A    between atoms: _314  and  _317
REMARK  128  A    between atoms: _317  and  _318
REMARK  129  A    between atoms: _321  and  _323
REMARK  130  A    between atoms: _323  and  _324
REMARK  131  A    between atoms: _323  and  _326
REMARK  132  A    between atoms: _326  and  _327
REMARK  133  A    between atoms: _330  and  _332
REMARK  134  A    between atoms: _332  and  _333
REMARK  135  A    between atoms: _332  and  _335
REMARK  136  A    between atoms: _335  and  _336
REMARK  137  A    between atoms: _339  and  _341
REMARK  138  A    between atoms: _341  and  _342
REMARK  139  A    between atoms: _344  and  _346
REMARK  140  A    between atoms: _346  and  _347
REMARK  141  A    between atoms: _350  and  _352
REMARK  142  A    between atoms: _352  and  _353
REMARK  143  A    between atoms: _352  and  _355
REMARK  144  A    between atoms: _355  and  _356
REMARK  145  A    between atoms: _359  and  _361
REMARK  146  A    between atoms: _361  and  _362
REMARK  147  A    between atoms: _361  and  _364
REMARK  148  A    between atoms: _364  and  _365
REMARK  149  A    between atoms: _368  and  _370
REMARK  150  A    between atoms: _370  and  _371
REMARK  151  A    between atoms: _370  and  _373
REMARK  152  A    between atoms: _373  and  _374
REMARK  153  A    between atoms: _377  and  _379
REMARK  154  A    between atoms: _379  and  _380
REMARK  155  A    between atoms: _379  and  _382
REMARK  156  A    between atoms: _385  and  _387
REMARK  157  A    between atoms: _387  and  _388
REMARK  158  A    between atoms: _387  and  _390
REMARK  159  A    between atoms: _390  and  _391
REMARK  160  A    between atoms: _394  and  _396
REMARK  161  A    between atoms: _396  and  _397
REMARK  162  A    between atoms: _396  and  _399
REMARK  163  A    between atoms: _399  and  _400
REMARK  164  A    between atoms: _400  and  _401
REMARK  165  A    between atoms: _401  and  _402
REMARK  166  A    between atoms: _411  and  _413
REMARK  167  A    between atoms: _413  and  _414
REMARK  168  A    between atoms: _413  and  _416
REMARK  169  A    between atoms: _416  and  _417
REMARK  170  A    between atoms: _417  and  _418
REMARK  171  A    between atoms: _420  and  _422
REMARK  172  A    between atoms: _422  and  _423
REMARK  173  A    between atoms: _422  and  _425
REMARK  174  A    between atoms: _425  and  _426
REMARK  175  A    between atoms: _429  and  _431
REMARK  176  A    between atoms: _431  and  _432
REMARK  177  A    between atoms: _434  and  _436
REMARK  178  A    between atoms: _436  and  _437
REMARK  179  A    between atoms: _439  and  _441
REMARK  180  A    between atoms: _441  and  _442
REMARK  181  A    between atoms: _441  and  _444
REMARK  182  A    between atoms: _444  and  _445
REMARK  183  A    between atoms: _448  and  _450
REMARK  184  A    between atoms: _450  and  _451
REMARK  185  A    between atoms: _453  and  _455
REMARK  186  A    between atoms: _455  and  _456
REMARK  187  A    between atoms: _458  and  _460
REMARK  188  A    between atoms: _460  and  _461
REMARK  189  A    between atoms: _460  and  _463
REMARK  190  A    between atoms: _463  and  _464
REMARK  191  A    between atoms: _470  and  _472
REMARK  192  A    between atoms: _472  and  _473
REMARK  193  A    between atoms: _472  and  _475
REMARK  194  A    between atoms: _478  and  _480
REMARK  195  A    between atoms: _480  and  _481
REMARK  196  A    between atoms: _480  and  _483
REMARK  197  A    between atoms: _486  and  _488
REMARK  198  A    between atoms: _488  and  _489
REMARK  199  A    between atoms: _488  and  _491
REMARK  200  A    between atoms: _491  and  _492
REMARK  201  A    between atoms: _495  and  _497
REMARK  202  A    between atoms: _497  and  _498
REMARK  203  A    between atoms: _497  and  _500
REMARK  204  A    between atoms: _500  and  _501
REMARK  205  A    between atoms: _505  and  _506
REMARK  206  A    between atoms: _511  and  _513
REMARK  207  A    between atoms: _513  and  _514
REMARK  208  A    between atoms: _517  and  _519
REMARK  209  A    between atoms: _519  and  _520
REMARK  210  A    between atoms: _519  and  _522
REMARK  211  A    between atoms: _522  and  _523
REMARK  212  A    between atoms: _528  and  _530
REMARK  213  A    between atoms: _530  and  _531
REMARK  214  A    between atoms: _530  and  _533
REMARK  215  A    between atoms: _533  and  _534
REMARK  216  A    between atoms: _537  and  _539
REMARK  217  A    between atoms: _539  and  _540
REMARK  218  A    between atoms: _539  and  _542
REMARK  219  A    between atoms: _542  and  _543
REMARK  220  A    between atoms: _546  and  _548
REMARK  221  A    between atoms: _548  and  _549
REMARK  222  A    between atoms: _551  and  _553
REMARK  223  A    between atoms: _553  and  _554
REMARK  224  A    between atoms: _553  and  _556
REMARK  225  A    between atoms: _556  and  _557
REMARK  226  A    between atoms: _557  and  _558
REMARK  227  A    between atoms: _558  and  _559
REMARK  228  A    between atoms: _568  and  _570
REMARK  229  A    between atoms: _570  and  _571
REMARK  230  A    between atoms: _570  and  _573
REMARK  231  A    between atoms: _573  and  _574
REMARK                            x       y       z     vdW  Elec       q    Type
REMARK                         _______ _______ _______ _____ _____    ______ ____
ROOT
ATOM      1  O   HOH     1       9.515   5.801   0.667  0.00  0.00    +0.000 OA
ENDROOT
TORSDOF 0
REMARK  Name = ../refined-set-2016/2p3a/2p3a_pocket.pdb
REMARK  231 active torsions:
REMARK  status: ('A' for Active; 'I' for Inactive)
REMARK    1  A    between atoms: _1  and  _3
REMARK    2  A    between atoms: _3  and  _4
REMARK    3  A    between atoms: _3  and  _6
REMARK    4  A    between atoms: _6  and  _7
REMARK    5  A    between atoms: _7  and  _8
REMARK    6  A    between atoms: _8  and  _9
REMARK    7  A    between atoms: _18  and  _20
REMARK    8  A    between atoms: _20  and  _21
REMARK    9  A    between atoms: _20  and  _23
REMARK   10  A    between atoms: _23  and  _24
REMARK   11  A    between atoms: _27  and  _29
REMARK   12  A    between atoms: _29  and  _30
REMARK   13  A    between atoms: _29  and  _32
REMARK   14  A    between atoms: _32  and  _33
REMARK   15  A    between atoms: _36  and  _38
REMARK   16  A    between atoms: _38  and  _39
REMARK   17  A    between atoms: _38  and  _41
REMARK   18  A    between atoms: _41  and  _42
REMARK   19  A    between atoms: _45  and  _47
REMARK   20  A    between atoms: _47  and  _48
REMARK   21  A    between atoms: _47  and  _50
REMARK   22  A    between atoms: _50  and  _51
REMARK   23  A    between atoms: _54  and  _56
REMARK   24  A    between atoms: _56  and  _57
REMARK   25  A    between atoms: _59  and  _61
REMARK   26  A    between atoms: _61  and  _62
REMARK   27  A    between atoms: _65  and  _67
REMARK   28  A    between atoms: _67  and  _68
REMARK   29  A    between atoms: _67  and  _70
REMARK   30  A    between atoms: _70  and  _71
REMARK   31  A    between atoms: _74  and  _76
REMARK   32  A    between atoms: _76  and  _77
REMARK   33  A    between atoms: _76  and  _79
REMARK   34  A    between atoms: _79  and  _80
REMARK   35  A    between atoms: _83  and  _85
REMARK   36  A    between atoms: _85  and  _86
REMARK   37  A    between atoms: _85  and  _88
REMARK   38  A    between atoms: _88  and  _89
REMARK   39  A    between atoms: _92  and  _94
REMARK   40  A    between atoms: _94  and  _95
REMARK   41  A    between atoms: _94  and  _97
REMARK   42  A    between atoms: _100  and  _102
REMARK   43  A    between atoms: _102  and  _103
REMARK   44  A    between atoms: _102  and  _105
REMARK   45  A    between atoms: _105  and  _106
REMARK   46  A    between atoms: _106  and  _107
REMARK   47  A    between atoms: _107  and  _108
REMARK   48  A    between atoms: _117  and  _119
REMARK   49  A    between atoms: _119  and  _120
REMARK   50  A    between atoms: _119  and  _122
REMARK   51  A    between atoms: _122  and  _123
REMARK   52  A    between atoms: _123  and  _124
REMARK   53  A    between atoms: _126  and  _128
REMARK   54  A    between atoms: _128  and  _129
REMARK   55  A    between atoms: _128  and  _131
REMARK   56  A    between atoms: _131  and  _132
REMARK   57  A    between atoms: _135  and  _137
REMARK   58  A    between atoms: _137  and  _138
REMARK   59  A    between atoms: _140  and  _142
REMARK   60  A    between atoms: _142  and  _143
REMARK   61  A    between atoms: _145  and  _147
REMARK   62  A    between atoms: _147  and  _148
REMARK   63  A    between atoms: _147  and  _150
REMARK   64  A    between atoms: _150  and  _151
REMARK   65  A    between atoms: _154  and  _156
REMARK   66  A    between atoms: _156  and  _157
REMARK   67  A    between atoms: _159  and  _161
REMARK   68  A    between atoms: _161  and  _162
REMARK   69  A    between atoms: _164  and  _166
REMARK   70  A    between atoms: _166  and  _167
REMARK   71  A    between atoms: _166  and  _169
REMARK   72  A    between atoms: _169  and  _170
REMARK   73  A    between atoms: _176  and  _178
REMARK   74  A    between atoms: _178  and  _179
REMARK   75  A    between atoms: _178  and  _181
REMARK   76  A    between atoms: _184  and  _186
REMARK   77  A    between atoms: _186  and  _187
REMARK   78  A    between atoms: _186  and  _189
REMARK   79  A    between atoms: _192  and  _194
REMARK   80  A    between atoms: _194  and  _195
REMARK   81  A    between atoms: _194  and  _197
REMARK   82  A    between atoms: _197  and  _198
REMARK   83  A    between atoms: _198  and  _199
REMARK   84  A    between atoms: _204  and  _206
REMARK   85  A    between atoms: _206  and  _207
REMARK   86  A    between atoms: _206  and  _209
REMARK   87  A    between atoms: _209  and  _210
REMARK   88  A    between atoms: _213  and  _215
REMARK   89  A    between atoms: _215  and  _216
REMARK   90  A    between atoms: _215  and  _218
REMARK   91  A    between atoms: _218  and  _219
REMARK   92  A    between atoms: _223  and  _224
REMARK   93  A    between atoms: _229  and  _231
REMARK   94  A    between atoms: _231  and  _232
REMARK   95  A    between atoms: _235  and  _237
REMARK   96  A    between atoms: _237  and  _238
REMARK   97  A    between atoms: _237  and  _240
REMARK   98  A    between atoms: _240  and  _241
REMARK   99  A    between atoms: _246  and  _248
REMARK  100  A    between atoms: _248  and  _249
REMARK  101  A    between atoms: _248  and  _251
REMARK  102  A    between atoms: _251  and  _252
REMARK  103  A    between atoms: _255  and  _257
REMARK  104  A    between atoms: _257  and  _258
REMARK  105  A    between atoms: _257  and  _260
REMARK  106  A    between atoms: _260  and  _261
REMARK  107  A    between atoms: _264  and  _266
REMARK  108  A    between atoms: _266  and  _267
REMARK  109  A    between atoms: _269  and  _271
REMARK  110  A    between atoms: _271  and  _272
REMARK  111  A    between atoms: _271  and  _274
REMARK  112  A    between atoms: _274  and  _275
REMARK  113  A    between atoms: _275  and  _276
REMARK  114  A    between atoms: _276  and  _277
REMARK  115  A    between atoms: _286  and  _288
REMARK  116  A    between atoms: _288  and  _289
REMARK  117  A    between atoms: _288  and  _291
REMARK  118  A    between atoms: _291  and  _292
REMARK  119  A    between atoms: _292  and  _293
REMARK  120  A    between atoms: _293  and  _294
REMARK  121  A    between atoms: _303  and  _305
REMARK  122  A    between atoms: _305  and  _306
REMARK  123  A    between atoms: _305  and  _308
REMARK  124  A    between atoms: _308  and  _309
REMARK  125  A    between atoms: _312  and  _314
REMARK  126  A    between atoms: _314  and  _315
REMARK  127  A    between atoms: _314  and  _317
REMARK  128  A    between atoms: _317  and  _318
REMARK  129  A    between atoms: _321  and  _323
REMARK  130  A    between atoms: _323  and  _324
REMARK  131  A    between atoms: _323  and  _326
REMARK  132  A    between atoms: _326  and  _327
REMARK  133  A    between atoms: _330  and  _332
REMARK  134  A    between atoms: _332  and  _333
REMARK  135  A    between atoms: _332  and  _335
REMARK  136  A    between atoms: _335  and  _336
REMARK  137  A    between atoms: _339  and  _341
REMARK  138  A    between atoms: _341  and  _342
REMARK  139  A    between atoms: _344  and  _346
REMARK  140  A    between atoms: _346  and  _347
REMARK  141  A    between atoms: _350  and  _352
REMARK  142  A    between atoms: _352  and  _353
REMARK  143  A    between atoms: _352  and  _355
REMARK  144  A    between atoms: _355  and  _356
REMARK  145  A    between atoms: _359  and  _361
REMARK  146  A    between atoms: _361  and  _362
REMARK  147  A    between atoms: _361  and  _364
REMARK  148  A    between atoms: _364  and  _365
REMARK  149  A    between atoms: _368  and  _370
REMARK  150  A    between atoms: _370  and  _371
REMARK  151  A    between atoms: _370  and  _373
REMARK  152  A    between atoms: _373  and  _374
REMARK  153  A    between atoms: _377  and  _379
REMARK  154  A    between atoms: _379  and  _380
REMARK  155  A    between atoms: _379  and  _382
REMARK  156  A    between atoms: _385  and  _387
REMARK  157  A    between atoms: _387  and  _388
REMARK  158  A    between atoms: _387  and  _390
REMARK  159  A    between atoms: _390  and  _391
REMARK  160  A    between atoms: _394  and  _396
REMARK  161  A    between atoms: _396  and  _397
REMARK  162  A    between atoms: _396  and  _399
REMARK  163  A    between atoms: _399  and  _400
REMARK  164  A    between atoms: _400  and  _401
REMARK  165  A    between atoms: _401  and  _402
REMARK  166  A    between atoms: _411  and  _413
REMARK  167  A    between atoms: _413  and  _414
REMARK  168  A    between atoms: _413  and  _416
REMARK  169  A    between atoms: _416  and  _417
REMARK  170  A    between atoms: _417  and  _418
REMARK  171  A    between atoms: _420  and  _422
REMARK  172  A    between atoms: _422  and  _423
REMARK  173  A    between atoms: _422  and  _425
REMARK  174  A    between atoms: _425  and  _426
REMARK  175  A    between atoms: _429  and  _431
REMARK  176  A    between atoms: _431  and  _432
REMARK  177  A    between atoms: _434  and  _436
REMARK  178  A    between atoms: _436  and  _437
REMARK  179  A    between atoms: _439  and  _441
REMARK  180  A    between atoms: _441  and  _442
REMARK  181  A    between atoms: _441  and  _444
REMARK  182  A    between atoms: _444  and  _445
REMARK  183  A    between atoms: _448  and  _450
REMARK  184  A    between atoms: _450  and  _451
REMARK  185  A    between atoms: _453  and  _455
REMARK  186  A    between atoms: _455  and  _456
REMARK  187  A    between atoms: _458  and  _460
REMARK  188  A    between atoms: _460  and  _461
REMARK  189  A    between atoms: _460  and  _463
REMARK  190  A    between atoms: _463  and  _464
REMARK  191  A    between atoms: _470  and  _472
REMARK  192  A    between atoms: _472  and  _473
REMARK  193  A    between atoms: _472  and  _475
REMARK  194  A    between atoms: _478  and  _480
REMARK  195  A    between atoms: _480  and  _481
REMARK  196  A    between atoms: _480  and  _483
REMARK  197  A    between atoms: _486  and  _488
REMARK  198  A    between atoms: _488  and  _489
REMARK  199  A    between atoms: _488  and  _491
REMARK  200  A    between atoms: _491  and  _492
REMARK  201  A    between atoms: _495  and  _497
REMARK  202  A    between atoms: _497  and  _498
REMARK  203  A    between atoms: _497  and  _500
REMARK  204  A    between atoms: _500  and  _501
REMARK  205  A    between atoms: _505  and  _506
REMARK  206  A    between atoms: _511  and  _513
REMARK  207  A    between atoms: _513  and  _514
REMARK  208  A    between atoms: _517  and  _519
REMARK  209  A    between atoms: _519  and  _520
REMARK  210  A    between atoms: _519  and  _522
REMARK  211  A    between atoms: _522  and  _523
REMARK  212  A    between atoms: _528  and  _530
REMARK  213  A    between atoms: _530  and  _531
REMARK  214  A    between atoms: _530  and  _533
REMARK  215  A    between atoms: _533  and  _534
REMARK  216  A    between atoms: _537  and  _539
REMARK  217  A    between atoms: _539  and  _540
REMARK  218  A    between atoms: _539  and  _542
REMARK  219  A    between atoms: _542  and  _543
REMARK  220  A    between atoms: _546  and  _548
REMARK  221  A    between atoms: _548  and  _549
REMARK  222  A    between atoms: _551  and  _553
REMARK  223  A    between atoms: _553  and  _554
REMARK  224  A    between atoms: _553  and  _556
REMARK  225  A    between atoms: _556  and  _557
REMARK  226  A    between atoms: _557  and  _558
REMARK  227  A    between atoms: _558  and  _559
REMARK  228  A    between atoms: _568  and  _570
REMARK  229  A    between atoms: _570  and  _571
REMARK  230  A    between atoms: _570  and  _573
REMARK  231  A    between atoms: _573  and  _574
REMARK                            x       y       z     vdW  Elec       q    Type
REMARK                         _______ _______ _______ _____ _____    ______ ____
ROOT
ATOM      1  O   HOH     1      10.269   5.188  -2.266  0.00  0.00    +0.000 OA
ENDROOT
TORSDOF 0
REMARK  Name = ../refined-set-2016/2p3a/2p3a_pocket.pdb
REMARK  231 active torsions:
REMARK  status: ('A' for Active; 'I' for Inactive)
REMARK    1  A    between atoms: _1  and  _3
REMARK    2  A    between atoms: _3  and  _4
REMARK    3  A    between atoms: _3  and  _6
REMARK    4  A    between atoms: _6  and  _7
REMARK    5  A    between atoms: _7  and  _8
REMARK    6  A    between atoms: _8  and  _9
REMARK    7  A    between atoms: _18  and  _20
REMARK    8  A    between atoms: _20  and  _21
REMARK    9  A    between atoms: _20  and  _23
REMARK   10  A    between atoms: _23  and  _24
REMARK   11  A    between atoms: _27  and  _29
REMARK   12  A    between atoms: _29  and  _30
REMARK   13  A    between atoms: _29  and  _32
REMARK   14  A    between atoms: _32  and  _33
REMARK   15  A    between atoms: _36  and  _38
REMARK   16  A    between atoms: _38  and  _39
REMARK   17  A    between atoms: _38  and  _41
REMARK   18  A    between atoms: _41  and  _42
REMARK   19  A    between atoms: _45  and  _47
REMARK   20  A    between atoms: _47  and  _48
REMARK   21  A    between atoms: _47  and  _50
REMARK   22  A    between atoms: _50  and  _51
REMARK   23  A    between atoms: _54  and  _56
REMARK   24  A    between atoms: _56  and  _57
REMARK   25  A    between atoms: _59  and  _61
REMARK   26  A    between atoms: _61  and  _62
REMARK   27  A    between atoms: _65  and  _67
REMARK   28  A    between atoms: _67  and  _68
REMARK   29  A    between atoms: _67  and  _70
REMARK   30  A    between atoms: _70  and  _71
REMARK   31  A    between atoms: _74  and  _76
REMARK   32  A    between atoms: _76  and  _77
REMARK   33  A    between atoms: _76  and  _79
REMARK   34  A    between atoms: _79  and  _80
REMARK   35  A    between atoms: _83  and  _85
REMARK   36  A    between atoms: _85  and  _86
REMARK   37  A    between atoms: _85  and  _88
REMARK   38  A    between atoms: _88  and  _89
REMARK   39  A    between atoms: _92  and  _94
REMARK   40  A    between atoms: _94  and  _95
REMARK   41  A    between atoms: _94  and  _97
REMARK   42  A    between atoms: _100  and  _102
REMARK   43  A    between atoms: _102  and  _103
REMARK   44  A    between atoms: _102  and  _105
REMARK   45  A    between atoms: _105  and  _106
REMARK   46  A    between atoms: _106  and  _107
REMARK   47  A    between atoms: _107  and  _108
REMARK   48  A    between atoms: _117  and  _119
REMARK   49  A    between atoms: _119  and  _120
REMARK   50  A    between atoms: _119  and  _122
REMARK   51  A    between atoms: _122  and  _123
REMARK   52  A    between atoms: _123  and  _124
REMARK   53  A    between atoms: _126  and  _128
REMARK   54  A    between atoms: _128  and  _129
REMARK   55  A    between atoms: _128  and  _131
REMARK   56  A    between atoms: _131  and  _132
REMARK   57  A    between atoms: _135  and  _137
REMARK   58  A    between atoms: _137  and  _138
REMARK   59  A    between atoms: _140  and  _142
REMARK   60  A    between atoms: _142  and  _143
REMARK   61  A    between atoms: _145  and  _147
REMARK   62  A    between atoms: _147  and  _148
REMARK   63  A    between atoms: _147  and  _150
REMARK   64  A    between atoms: _150  and  _151
REMARK   65  A    between atoms: _154  and  _156
REMARK   66  A    between atoms: _156  and  _157
REMARK   67  A    between atoms: _159  and  _161
REMARK   68  A    between atoms: _161  and  _162
REMARK   69  A    between atoms: _164  and  _166
REMARK   70  A    between atoms: _166  and  _167
REMARK   71  A    between atoms: _166  and  _169
REMARK   72  A    between atoms: _169  and  _170
REMARK   73  A    between atoms: _176  and  _178
REMARK   74  A    between atoms: _178  and  _179
REMARK   75  A    between atoms: _178  and  _181
REMARK   76  A    between atoms: _184  and  _186
REMARK   77  A    between atoms: _186  and  _187
REMARK   78  A    between atoms: _186  and  _189
REMARK   79  A    between atoms: _192  and  _194
REMARK   80  A    between atoms: _194  and  _195
REMARK   81  A    between atoms: _194  and  _197
REMARK   82  A    between atoms: _197  and  _198
REMARK   83  A    between atoms: _198  and  _199
REMARK   84  A    between atoms: _204  and  _206
REMARK   85  A    between atoms: _206  and  _207
REMARK   86  A    between atoms: _206  and  _209
REMARK   87  A    between atoms: _209  and  _210
REMARK   88  A    between atoms: _213  and  _215
REMARK   89  A    between atoms: _215  and  _216
REMARK   90  A    between atoms: _215  and  _218
REMARK   91  A    between atoms: _218  and  _219
REMARK   92  A    between atoms: _223  and  _224
REMARK   93  A    between atoms: _229  and  _231
REMARK   94  A    between atoms: _231  and  _232
REMARK   95  A    between atoms: _235  and  _237
REMARK   96  A    between atoms: _237  and  _238
REMARK   97  A    between atoms: _237  and  _240
REMARK   98  A    between atoms: _240  and  _241
REMARK   99  A    between atoms: _246  and  _248
REMARK  100  A    between atoms: _248  and  _249
REMARK  101  A    between atoms: _248  and  _251
REMARK  102  A    between atoms: _251  and  _252
REMARK  103  A    between atoms: _255  and  _257
REMARK  104  A    between atoms: _257  and  _258
REMARK  105  A    between atoms: _257  and  _260
REMARK  106  A    between atoms: _260  and  _261
REMARK  107  A    between atoms: _264  and  _266
REMARK  108  A    between atoms: _266  and  _267
REMARK  109  A    between atoms: _269  and  _271
REMARK  110  A    between atoms: _271  and  _272
REMARK  111  A    between atoms: _271  and  _274
REMARK  112  A    between atoms: _274  and  _275
REMARK  113  A    between atoms: _275  and  _276
REMARK  114  A    between atoms: _276  and  _277
REMARK  115  A    between atoms: _286  and  _288
REMARK  116  A    between atoms: _288  and  _289
REMARK  117  A    between atoms: _288  and  _291
REMARK  118  A    between atoms: _291  and  _292
REMARK  119  A    between atoms: _292  and  _293
REMARK  120  A    between atoms: _293  and  _294
REMARK  121  A    between atoms: _303  and  _305
REMARK  122  A    between atoms: _305  and  _306
REMARK  123  A    between atoms: _305  and  _308
REMARK  124  A    between atoms: _308  and  _309
REMARK  125  A    between atoms: _312  and  _314
REMARK  126  A    between atoms: _314  and  _315
REMARK  127  A    between atoms: _314  and  _317
REMARK  128  A    between atoms: _317  and  _318
REMARK  129  A    between atoms: _321  and  _323
REMARK  130  A    between atoms: _323  and  _324
REMARK  131  A    between atoms: _323  and  _326
REMARK  132  A    between atoms: _326  and  _327
REMARK  133  A    between atoms: _330  and  _332
REMARK  134  A    between atoms: _332  and  _333
REMARK  135  A    between atoms: _332  and  _335
REMARK  136  A    between atoms: _335  and  _336
REMARK  137  A    between atoms: _339  and  _341
REMARK  138  A    between atoms: _341  and  _342
REMARK  139  A    between atoms: _344  and  _346
REMARK  140  A    between atoms: _346  and  _347
REMARK  141  A    between atoms: _350  and  _352
REMARK  142  A    between atoms: _352  and  _353
REMARK  143  A    between atoms: _352  and  _355
REMARK  144  A    between atoms: _355  and  _356
REMARK  145  A    between atoms: _359  and  _361
REMARK  146  A    between atoms: _361  and  _362
REMARK  147  A    between atoms: _361  and  _364
REMARK  148  A    between atoms: _364  and  _365
REMARK  149  A    between atoms: _368  and  _370
REMARK  150  A    between atoms: _370  and  _371
REMARK  151  A    between atoms: _370  and  _373
REMARK  152  A    between atoms: _373  and  _374
REMARK  153  A    between atoms: _377  and  _379
REMARK  154  A    between atoms: _379  and  _380
REMARK  155  A    between atoms: _379  and  _382
REMARK  156  A    between atoms: _385  and  _387
REMARK  157  A    between atoms: _387  and  _388
REMARK  158  A    between atoms: _387  and  _390
REMARK  159  A    between atoms: _390  and  _391
REMARK  160  A    between atoms: _394  and  _396
REMARK  161  A    between atoms: _396  and  _397
REMARK  162  A    between atoms: _396  and  _399
REMARK  163  A    between atoms: _399  and  _400
REMARK  164  A    between atoms: _400  and  _401
REMARK  165  A    between atoms: _401  and  _402
REMARK  166  A    between atoms: _411  and  _413
REMARK  167  A    between atoms: _413  and  _414
REMARK  168  A    between atoms: _413  and  _416
REMARK  169  A    between atoms: _416  and  _417
REMARK  170  A    between atoms: _417  and  _418
REMARK  171  A    between atoms: _420  and  _422
REMARK  172  A    between atoms: _422  and  _423
REMARK  173  A    between atoms: _422  and  _425
REMARK  174  A    between atoms: _425  and  _426
REMARK  175  A    between atoms: _429  and  _431
REMARK  176  A    between atoms: _431  and  _432
REMARK  177  A    between atoms: _434  and  _436
REMARK  178  A    between atoms: _436  and  _437
REMARK  179  A    between atoms: _439  and  _441
REMARK  180  A    between atoms: _441  and  _442
REMARK  181  A    between atoms: _441  and  _444
REMARK  182  A    between atoms: _444  and  _445
REMARK  183  A    between atoms: _448  and  _450
REMARK  184  A    between atoms: _450  and  _451
REMARK  185  A    between atoms: _453  and  _455
REMARK  186  A    between atoms: _455  and  _456
REMARK  187  A    between atoms: _458  and  _460
REMARK  188  A    between atoms: _460  and  _461
REMARK  189  A    between atoms: _460  and  _463
REMARK  190  A    between atoms: _463  and  _464
REMARK  191  A    between atoms: _470  and  _472
REMARK  192  A    between atoms: _472  and  _473
REMARK  193  A    between atoms: _472  and  _475
REMARK  194  A    between atoms: _478  and  _480
REMARK  195  A    between atoms: _480  and  _481
REMARK  196  A    between atoms: _480  and  _483
REMARK  197  A    between atoms: _486  and  _488
REMARK  198  A    between atoms: _488  and  _489
REMARK  199  A    between atoms: _488  and  _491
REMARK  200  A    between atoms: _491  and  _492
REMARK  201  A    between atoms: _495  and  _497
REMARK  202  A    between atoms: _497  and  _498
REMARK  203  A    between atoms: _497  and  _500
REMARK  204  A    between atoms: _500  and  _501
REMARK  205  A    between atoms: _505  and  _506
REMARK  206  A    between atoms: _511  and  _513
REMARK  207  A    between atoms: _513  and  _514
REMARK  208  A    between atoms: _517  and  _519
REMARK  209  A    between atoms: _519  and  _520
REMARK  210  A    between atoms: _519  and  _522
REMARK  211  A    between atoms: _522  and  _523
REMARK  212  A    between atoms: _528  and  _530
REMARK  213  A    between atoms: _530  and  _531
REMARK  214  A    between atoms: _530  and  _533
REMARK  215  A    between atoms: _533  and  _534
REMARK  216  A    between atoms: _537  and  _539
REMARK  217  A    between atoms: _539  and  _540
REMARK  218  A    between atoms: _539  and  _542
REMARK  219  A    between atoms: _542  and  _543
REMARK  220  A    between atoms: _546  and  _548
REMARK  221  A    between atoms: _548  and  _549
REMARK  222  A    between atoms: _551  and  _553
REMARK  223  A    between atoms: _553  and  _554
REMARK  224  A    between atoms: _553  and  _556
REMARK  225  A    between atoms: _556  and  _557
REMARK  226  A    between atoms: _557  and  _558
REMARK  227  A    between atoms: _558  and  _559
REMARK  228  A    between atoms: _568  and  _570
REMARK  229  A    between atoms: _570  and  _571
REMARK  230  A    between atoms: _570  and  _573
REMARK  231  A    between atoms: _573  and  _574
REMARK                            x       y       z     vdW  Elec       q    Type
REMARK                         _______ _______ _______ _____ _____    ______ ____
ROOT
ATOM      1  O   HOH     1      21.788   5.910  11.435  0.00  0.00    +0.000 OA
ENDROOT
TORSDOF 0
REMARK  Name = ../refined-set-2016/2p3a/2p3a_pocket.pdb
REMARK  231 active torsions:
REMARK  status: ('A' for Active; 'I' for Inactive)
REMARK    1  A    between atoms: _1  and  _3
REMARK    2  A    between atoms: _3  and  _4
REMARK    3  A    between atoms: _3  and  _6
REMARK    4  A    between atoms: _6  and  _7
REMARK    5  A    between atoms: _7  and  _8
REMARK    6  A    between atoms: _8  and  _9
REMARK    7  A    between atoms: _18  and  _20
REMARK    8  A    between atoms: _20  and  _21
REMARK    9  A    between atoms: _20  and  _23
REMARK   10  A    between atoms: _23  and  _24
REMARK   11  A    between atoms: _27  and  _29
REMARK   12  A    between atoms: _29  and  _30
REMARK   13  A    between atoms: _29  and  _32
REMARK   14  A    between atoms: _32  and  _33
REMARK   15  A    between atoms: _36  and  _38
REMARK   16  A    between atoms: _38  and  _39
REMARK   17  A    between atoms: _38  and  _41
REMARK   18  A    between atoms: _41  and  _42
REMARK   19  A    between atoms: _45  and  _47
REMARK   20  A    between atoms: _47  and  _48
REMARK   21  A    between atoms: _47  and  _50
REMARK   22  A    between atoms: _50  and  _51
REMARK   23  A    between atoms: _54  and  _56
REMARK   24  A    between atoms: _56  and  _57
REMARK   25  A    between atoms: _59  and  _61
REMARK   26  A    between atoms: _61  and  _62
REMARK   27  A    between atoms: _65  and  _67
REMARK   28  A    between atoms: _67  and  _68
REMARK   29  A    between atoms: _67  and  _70
REMARK   30  A    between atoms: _70  and  _71
REMARK   31  A    between atoms: _74  and  _76
REMARK   32  A    between atoms: _76  and  _77
REMARK   33  A    between atoms: _76  and  _79
REMARK   34  A    between atoms: _79  and  _80
REMARK   35  A    between atoms: _83  and  _85
REMARK   36  A    between atoms: _85  and  _86
REMARK   37  A    between atoms: _85  and  _88
REMARK   38  A    between atoms: _88  and  _89
REMARK   39  A    between atoms: _92  and  _94
REMARK   40  A    between atoms: _94  and  _95
REMARK   41  A    between atoms: _94  and  _97
REMARK   42  A    between atoms: _100  and  _102
REMARK   43  A    between atoms: _102  and  _103
REMARK   44  A    between atoms: _102  and  _105
REMARK   45  A    between atoms: _105  and  _106
REMARK   46  A    between atoms: _106  and  _107
REMARK   47  A    between atoms: _107  and  _108
REMARK   48  A    between atoms: _117  and  _119
REMARK   49  A    between atoms: _119  and  _120
REMARK   50  A    between atoms: _119  and  _122
REMARK   51  A    between atoms: _122  and  _123
REMARK   52  A    between atoms: _123  and  _124
REMARK   53  A    between atoms: _126  and  _128
REMARK   54  A    between atoms: _128  and  _129
REMARK   55  A    between atoms: _128  and  _131
REMARK   56  A    between atoms: _131  and  _132
REMARK   57  A    between atoms: _135  and  _137
REMARK   58  A    between atoms: _137  and  _138
REMARK   59  A    between atoms: _140  and  _142
REMARK   60  A    between atoms: _142  and  _143
REMARK   61  A    between atoms: _145  and  _147
REMARK   62  A    between atoms: _147  and  _148
REMARK   63  A    between atoms: _147  and  _150
REMARK   64  A    between atoms: _150  and  _151
REMARK   65  A    between atoms: _154  and  _156
REMARK   66  A    between atoms: _156  and  _157
REMARK   67  A    between atoms: _159  and  _161
REMARK   68  A    between atoms: _161  and  _162
REMARK   69  A    between atoms: _164  and  _166
REMARK   70  A    between atoms: _166  and  _167
REMARK   71  A    between atoms: _166  and  _169
REMARK   72  A    between atoms: _169  and  _170
REMARK   73  A    between atoms: _176  and  _178
REMARK   74  A    between atoms: _178  and  _179
REMARK   75  A    between atoms: _178  and  _181
REMARK   76  A    between atoms: _184  and  _186
REMARK   77  A    between atoms: _186  and  _187
REMARK   78  A    between atoms: _186  and  _189
REMARK   79  A    between atoms: _192  and  _194
REMARK   80  A    between atoms: _194  and  _195
REMARK   81  A    between atoms: _194  and  _197
REMARK   82  A    between atoms: _197  and  _198
REMARK   83  A    between atoms: _198  and  _199
REMARK   84  A    between atoms: _204  and  _206
REMARK   85  A    between atoms: _206  and  _207
REMARK   86  A    between atoms: _206  and  _209
REMARK   87  A    between atoms: _209  and  _210
REMARK   88  A    between atoms: _213  and  _215
REMARK   89  A    between atoms: _215  and  _216
REMARK   90  A    between atoms: _215  and  _218
REMARK   91  A    between atoms: _218  and  _219
REMARK   92  A    between atoms: _223  and  _224
REMARK   93  A    between atoms: _229  and  _231
REMARK   94  A    between atoms: _231  and  _232
REMARK   95  A    between atoms: _235  and  _237
REMARK   96  A    between atoms: _237  and  _238
REMARK   97  A    between atoms: _237  and  _240
REMARK   98  A    between atoms: _240  and  _241
REMARK   99  A    between atoms: _246  and  _248
REMARK  100  A    between atoms: _248  and  _249
REMARK  101  A    between atoms: _248  and  _251
REMARK  102  A    between atoms: _251  and  _252
REMARK  103  A    between atoms: _255  and  _257
REMARK  104  A    between atoms: _257  and  _258
REMARK  105  A    between atoms: _257  and  _260
REMARK  106  A    between atoms: _260  and  _261
REMARK  107  A    between atoms: _264  and  _266
REMARK  108  A    between atoms: _266  and  _267
REMARK  109  A    between atoms: _269  and  _271
REMARK  110  A    between atoms: _271  and  _272
REMARK  111  A    between atoms: _271  and  _274
REMARK  112  A    between atoms: _274  and  _275
REMARK  113  A    between atoms: _275  and  _276
REMARK  114  A    between atoms: _276  and  _277
REMARK  115  A    between atoms: _286  and  _288
REMARK  116  A    between atoms: _288  and  _289
REMARK  117  A    between atoms: _288  and  _291
REMARK  118  A    between atoms: _291  and  _292
REMARK  119  A    between atoms: _292  and  _293
REMARK  120  A    between atoms: _293  and  _294
REMARK  121  A    between atoms: _303  and  _305
REMARK  122  A    between atoms: _305  and  _306
REMARK  123  A    between atoms: _305  and  _308
REMARK  124  A    between atoms: _308  and  _309
REMARK  125  A    between atoms: _312  and  _314
REMARK  126  A    between atoms: _314  and  _315
REMARK  127  A    between atoms: _314  and  _317
REMARK  128  A    between atoms: _317  and  _318
REMARK  129  A    between atoms: _321  and  _323
REMARK  130  A    between atoms: _323  and  _324
REMARK  131  A    between atoms: _323  and  _326
REMARK  132  A    between atoms: _326  and  _327
REMARK  133  A    between atoms: _330  and  _332
REMARK  134  A    between atoms: _332  and  _333
REMARK  135  A    between atoms: _332  and  _335
REMARK  136  A    between atoms: _335  and  _336
REMARK  137  A    between atoms: _339  and  _341
REMARK  138  A    between atoms: _341  and  _342
REMARK  139  A    between atoms: _344  and  _346
REMARK  140  A    between atoms: _346  and  _347
REMARK  141  A    between atoms: _350  and  _352
REMARK  142  A    between atoms: _352  and  _353
REMARK  143  A    between atoms: _352  and  _355
REMARK  144  A    between atoms: _355  and  _356
REMARK  145  A    between atoms: _359  and  _361
REMARK  146  A    between atoms: _361  and  _362
REMARK  147  A    between atoms: _361  and  _364
REMARK  148  A    between atoms: _364  and  _365
REMARK  149  A    between atoms: _368  and  _370
REMARK  150  A    between atoms: _370  and  _371
REMARK  151  A    between atoms: _370  and  _373
REMARK  152  A    between atoms: _373  and  _374
REMARK  153  A    between atoms: _377  and  _379
REMARK  154  A    between atoms: _379  and  _380
REMARK  155  A    between atoms: _379  and  _382
REMARK  156  A    between atoms: _385  and  _387
REMARK  157  A    between atoms: _387  and  _388
REMARK  158  A    between atoms: _387  and  _390
REMARK  159  A    between atoms: _390  and  _391
REMARK  160  A    between atoms: _394  and  _396
REMARK  161  A    between atoms: _396  and  _397
REMARK  162  A    between atoms: _396  and  _399
REMARK  163  A    between atoms: _399  and  _400
REMARK  164  A    between atoms: _400  and  _401
REMARK  165  A    between atoms: _401  and  _402
REMARK  166  A    between atoms: _411  and  _413
REMARK  167  A    between atoms: _413  and  _414
REMARK  168  A    between atoms: _413  and  _416
REMARK  169  A    between atoms: _416  and  _417
REMARK  170  A    between atoms: _417  and  _418
REMARK  171  A    between atoms: _420  and  _422
REMARK  172  A    between atoms: _422  and  _423
REMARK  173  A    between atoms: _422  and  _425
REMARK  174  A    between atoms: _425  and  _426
REMARK  175  A    between atoms: _429  and  _431
REMARK  176  A    between atoms: _431  and  _432
REMARK  177  A    between atoms: _434  and  _436
REMARK  178  A    between atoms: _436  and  _437
REMARK  179  A    between atoms: _439  and  _441
REMARK  180  A    between atoms: _441  and  _442
REMARK  181  A    between atoms: _441  and  _444
REMARK  182  A    between atoms: _444  and  _445
REMARK  183  A    between atoms: _448  and  _450
REMARK  184  A    between atoms: _450  and  _451
REMARK  185  A    between atoms: _453  and  _455
REMARK  186  A    between atoms: _455  and  _456
REMARK  187  A    between atoms: _458  and  _460
REMARK  188  A    between atoms: _460  and  _461
REMARK  189  A    between atoms: _460  and  _463
REMARK  190  A    between atoms: _463  and  _464
REMARK  191  A    between atoms: _470  and  _472
REMARK  192  A    between atoms: _472  and  _473
REMARK  193  A    between atoms: _472  and  _475
REMARK  194  A    between atoms: _478  and  _480
REMARK  195  A    between atoms: _480  and  _481
REMARK  196  A    between atoms: _480  and  _483
REMARK  197  A    between atoms: _486  and  _488
REMARK  198  A    between atoms: _488  and  _489
REMARK  199  A    between atoms: _488  and  _491
REMARK  200  A    between atoms: _491  and  _492
REMARK  201  A    between atoms: _495  and  _497
REMARK  202  A    between atoms: _497  and  _498
REMARK  203  A    between atoms: _497  and  _500
REMARK  204  A    between atoms: _500  and  _501
REMARK  205  A    between atoms: _505  and  _506
REMARK  206  A    between atoms: _511  and  _513
REMARK  207  A    between atoms: _513  and  _514
REMARK  208  A    between atoms: _517  and  _519
REMARK  209  A    between atoms: _519  and  _520
REMARK  210  A    between atoms: _519  and  _522
REMARK  211  A    between atoms: _522  and  _523
REMARK  212  A    between atoms: _528  and  _530
REMARK  213  A    between atoms: _530  and  _531
REMARK  214  A    between atoms: _530  and  _533
REMARK  215  A    between atoms: _533  and  _534
REMARK  216  A    between atoms: _537  and  _539
REMARK  217  A    between atoms: _539  and  _540
REMARK  218  A    between atoms: _539  and  _542
REMARK  219  A    between atoms: _542  and  _543
REMARK  220  A    between atoms: _546  and  _548
REMARK  221  A    between atoms: _548  and  _549
REMARK  222  A    between atoms: _551  and  _553
REMARK  223  A    between atoms: _553  and  _554
REMARK  224  A    between atoms: _553  and  _556
REMARK  225  A    between atoms: _556  and  _557
REMARK  226  A    between atoms: _557  and  _558
REMARK  227  A    between atoms: _558  and  _559
REMARK  228  A    between atoms: _568  and  _570
REMARK  229  A    between atoms: _570  and  _571
REMARK  230  A    between atoms: _570  and  _573
REMARK  231  A    between atoms: _573  and  _574
REMARK                            x       y       z     vdW  Elec       q    Type
REMARK                         _______ _______ _______ _____ _____    ______ ____
ROOT
ATOM      1  O   HOH     1      16.327 -10.080  -2.738  0.00  0.00    +0.000 OA
ENDROOT
TORSDOF 0
REMARK  Name = ../refined-set-2016/2p3a/2p3a_pocket.pdb
REMARK  231 active torsions:
REMARK  status: ('A' for Active; 'I' for Inactive)
REMARK    1  A    between atoms: _1  and  _3
REMARK    2  A    between atoms: _3  and  _4
REMARK    3  A    between atoms: _3  and  _6
REMARK    4  A    between atoms: _6  and  _7
REMARK    5  A    between atoms: _7  and  _8
REMARK    6  A    between atoms: _8  and  _9
REMARK    7  A    between atoms: _18  and  _20
REMARK    8  A    between atoms: _20  and  _21
REMARK    9  A    between atoms: _20  and  _23
REMARK   10  A    between atoms: _23  and  _24
REMARK   11  A    between atoms: _27  and  _29
REMARK   12  A    between atoms: _29  and  _30
REMARK   13  A    between atoms: _29  and  _32
REMARK   14  A    between atoms: _32  and  _33
REMARK   15  A    between atoms: _36  and  _38
REMARK   16  A    between atoms: _38  and  _39
REMARK   17  A    between atoms: _38  and  _41
REMARK   18  A    between atoms: _41  and  _42
REMARK   19  A    between atoms: _45  and  _47
REMARK   20  A    between atoms: _47  and  _48
REMARK   21  A    between atoms: _47  and  _50
REMARK   22  A    between atoms: _50  and  _51
REMARK   23  A    between atoms: _54  and  _56
REMARK   24  A    between atoms: _56  and  _57
REMARK   25  A    between atoms: _59  and  _61
REMARK   26  A    between atoms: _61  and  _62
REMARK   27  A    between atoms: _65  and  _67
REMARK   28  A    between atoms: _67  and  _68
REMARK   29  A    between atoms: _67  and  _70
REMARK   30  A    between atoms: _70  and  _71
REMARK   31  A    between atoms: _74  and  _76
REMARK   32  A    between atoms: _76  and  _77
REMARK   33  A    between atoms: _76  and  _79
REMARK   34  A    between atoms: _79  and  _80
REMARK   35  A    between atoms: _83  and  _85
REMARK   36  A    between atoms: _85  and  _86
REMARK   37  A    between atoms: _85  and  _88
REMARK   38  A    between atoms: _88  and  _89
REMARK   39  A    between atoms: _92  and  _94
REMARK   40  A    between atoms: _94  and  _95
REMARK   41  A    between atoms: _94  and  _97
REMARK   42  A    between atoms: _100  and  _102
REMARK   43  A    between atoms: _102  and  _103
REMARK   44  A    between atoms: _102  and  _105
REMARK   45  A    between atoms: _105  and  _106
REMARK   46  A    between atoms: _106  and  _107
REMARK   47  A    between atoms: _107  and  _108
REMARK   48  A    between atoms: _117  and  _119
REMARK   49  A    between atoms: _119  and  _120
REMARK   50  A    between atoms: _119  and  _122
REMARK   51  A    between atoms: _122  and  _123
REMARK   52  A    between atoms: _123  and  _124
REMARK   53  A    between atoms: _126  and  _128
REMARK   54  A    between atoms: _128  and  _129
REMARK   55  A    between atoms: _128  and  _131
REMARK   56  A    between atoms: _131  and  _132
REMARK   57  A    between atoms: _135  and  _137
REMARK   58  A    between atoms: _137  and  _138
REMARK   59  A    between atoms: _140  and  _142
REMARK   60  A    between atoms: _142  and  _143
REMARK   61  A    between atoms: _145  and  _147
REMARK   62  A    between atoms: _147  and  _148
REMARK   63  A    between atoms: _147  and  _150
REMARK   64  A    between atoms: _150  and  _151
REMARK   65  A    between atoms: _154  and  _156
REMARK   66  A    between atoms: _156  and  _157
REMARK   67  A    between atoms: _159  and  _161
REMARK   68  A    between atoms: _161  and  _162
REMARK   69  A    between atoms: _164  and  _166
REMARK   70  A    between atoms: _166  and  _167
REMARK   71  A    between atoms: _166  and  _169
REMARK   72  A    between atoms: _169  and  _170
REMARK   73  A    between atoms: _176  and  _178
REMARK   74  A    between atoms: _178  and  _179
REMARK   75  A    between atoms: _178  and  _181
REMARK   76  A    between atoms: _184  and  _186
REMARK   77  A    between atoms: _186  and  _187
REMARK   78  A    between atoms: _186  and  _189
REMARK   79  A    between atoms: _192  and  _194
REMARK   80  A    between atoms: _194  and  _195
REMARK   81  A    between atoms: _194  and  _197
REMARK   82  A    between atoms: _197  and  _198
REMARK   83  A    between atoms: _198  and  _199
REMARK   84  A    between atoms: _204  and  _206
REMARK   85  A    between atoms: _206  and  _207
REMARK   86  A    between atoms: _206  and  _209
REMARK   87  A    between atoms: _209  and  _210
REMARK   88  A    between atoms: _213  and  _215
REMARK   89  A    between atoms: _215  and  _216
REMARK   90  A    between atoms: _215  and  _218
REMARK   91  A    between atoms: _218  and  _219
REMARK   92  A    between atoms: _223  and  _224
REMARK   93  A    between atoms: _229  and  _231
REMARK   94  A    between atoms: _231  and  _232
REMARK   95  A    between atoms: _235  and  _237
REMARK   96  A    between atoms: _237  and  _238
REMARK   97  A    between atoms: _237  and  _240
REMARK   98  A    between atoms: _240  and  _241
REMARK   99  A    between atoms: _246  and  _248
REMARK  100  A    between atoms: _248  and  _249
REMARK  101  A    between atoms: _248  and  _251
REMARK  102  A    between atoms: _251  and  _252
REMARK  103  A    between atoms: _255  and  _257
REMARK  104  A    between atoms: _257  and  _258
REMARK  105  A    between atoms: _257  and  _260
REMARK  106  A    between atoms: _260  and  _261
REMARK  107  A    between atoms: _264  and  _266
REMARK  108  A    between atoms: _266  and  _267
REMARK  109  A    between atoms: _269  and  _271
REMARK  110  A    between atoms: _271  and  _272
REMARK  111  A    between atoms: _271  and  _274
REMARK  112  A    between atoms: _274  and  _275
REMARK  113  A    between atoms: _275  and  _276
REMARK  114  A    between atoms: _276  and  _277
REMARK  115  A    between atoms: _286  and  _288
REMARK  116  A    between atoms: _288  and  _289
REMARK  117  A    between atoms: _288  and  _291
REMARK  118  A    between atoms: _291  and  _292
REMARK  119  A    between atoms: _292  and  _293
REMARK  120  A    between atoms: _293  and  _294
REMARK  121  A    between atoms: _303  and  _305
REMARK  122  A    between atoms: _305  and  _306
REMARK  123  A    between atoms: _305  and  _308
REMARK  124  A    between atoms: _308  and  _309
REMARK  125  A    between atoms: _312  and  _314
REMARK  126  A    between atoms: _314  and  _315
REMARK  127  A    between atoms: _314  and  _317
REMARK  128  A    between atoms: _317  and  _318
REMARK  129  A    between atoms: _321  and  _323
REMARK  130  A    between atoms: _323  and  _324
REMARK  131  A    between atoms: _323  and  _326
REMARK  132  A    between atoms: _326  and  _327
REMARK  133  A    between atoms: _330  and  _332
REMARK  134  A    between atoms: _332  and  _333
REMARK  135  A    between atoms: _332  and  _335
REMARK  136  A    between atoms: _335  and  _336
REMARK  137  A    between atoms: _339  and  _341
REMARK  138  A    between atoms: _341  and  _342
REMARK  139  A    between atoms: _344  and  _346
REMARK  140  A    between atoms: _346  and  _347
REMARK  141  A    between atoms: _350  and  _352
REMARK  142  A    between atoms: _352  and  _353
REMARK  143  A    between atoms: _352  and  _355
REMARK  144  A    between atoms: _355  and  _356
REMARK  145  A    between atoms: _359  and  _361
REMARK  146  A    between atoms: _361  and  _362
REMARK  147  A    between atoms: _361  and  _364
REMARK  148  A    between atoms: _364  and  _365
REMARK  149  A    between atoms: _368  and  _370
REMARK  150  A    between atoms: _370  and  _371
REMARK  151  A    between atoms: _370  and  _373
REMARK  152  A    between atoms: _373  and  _374
REMARK  153  A    between atoms: _377  and  _379
REMARK  154  A    between atoms: _379  and  _380
REMARK  155  A    between atoms: _379  and  _382
REMARK  156  A    between atoms: _385  and  _387
REMARK  157  A    between atoms: _387  and  _388
REMARK  158  A    between atoms: _387  and  _390
REMARK  159  A    between atoms: _390  and  _391
REMARK  160  A    between atoms: _394  and  _396
REMARK  161  A    between atoms: _396  and  _397
REMARK  162  A    between atoms: _396  and  _399
REMARK  163  A    between atoms: _399  and  _400
REMARK  164  A    between atoms: _400  and  _401
REMARK  165  A    between atoms: _401  and  _402
REMARK  166  A    between atoms: _411  and  _413
REMARK  167  A    between atoms: _413  and  _414
REMARK  168  A    between atoms: _413  and  _416
REMARK  169  A    between atoms: _416  and  _417
REMARK  170  A    between atoms: _417  and  _418
REMARK  171  A    between atoms: _420  and  _422
REMARK  172  A    between atoms: _422  and  _423
REMARK  173  A    between atoms: _422  and  _425
REMARK  174  A    between atoms: _425  and  _426
REMARK  175  A    between atoms: _429  and  _431
REMARK  176  A    between atoms: _431  and  _432
REMARK  177  A    between atoms: _434  and  _436
REMARK  178  A    between atoms: _436  and  _437
REMARK  179  A    between atoms: _439  and  _441
REMARK  180  A    between atoms: _441  and  _442
REMARK  181  A    between atoms: _441  and  _444
REMARK  182  A    between atoms: _444  and  _445
REMARK  183  A    between atoms: _448  and  _450
REMARK  184  A    between atoms: _450  and  _451
REMARK  185  A    between atoms: _453  and  _455
REMARK  186  A    between atoms: _455  and  _456
REMARK  187  A    between atoms: _458  and  _460
REMARK  188  A    between atoms: _460  and  _461
REMARK  189  A    between atoms: _460  and  _463
REMARK  190  A    between atoms: _463  and  _464
REMARK  191  A    between atoms: _470  and  _472
REMARK  192  A    between atoms: _472  and  _473
REMARK  193  A    between atoms: _472  and  _475
REMARK  194  A    between atoms: _478  and  _480
REMARK  195  A    between atoms: _480  and  _481
REMARK  196  A    between atoms: _480  and  _483
REMARK  197  A    between atoms: _486  and  _488
REMARK  198  A    between atoms: _488  and  _489
REMARK  199  A    between atoms: _488  and  _491
REMARK  200  A    between atoms: _491  and  _492
REMARK  201  A    between atoms: _495  and  _497
REMARK  202  A    between atoms: _497  and  _498
REMARK  203  A    between atoms: _497  and  _500
REMARK  204  A    between atoms: _500  and  _501
REMARK  205  A    between atoms: _505  and  _506
REMARK  206  A    between atoms: _511  and  _513
REMARK  207  A    between atoms: _513  and  _514
REMARK  208  A    between atoms: _517  and  _519
REMARK  209  A    between atoms: _519  and  _520
REMARK  210  A    between atoms: _519  and  _522
REMARK  211  A    between atoms: _522  and  _523
REMARK  212  A    between atoms: _528  and  _530
REMARK  213  A    between atoms: _530  and  _531
REMARK  214  A    between atoms: _530  and  _533
REMARK  215  A    between atoms: _533  and  _534
REMARK  216  A    between atoms: _537  and  _539
REMARK  217  A    between atoms: _539  and  _540
REMARK  218  A    between atoms: _539  and  _542
REMARK  219  A    between atoms: _542  and  _543
REMARK  220  A    between atoms: _546  and  _548
REMARK  221  A    between atoms: _548  and  _549
REMARK  222  A    between atoms: _551  and  _553
REMARK  223  A    between atoms: _553  and  _554
REMARK  224  A    between atoms: _553  and  _556
REMARK  225  A    between atoms: _556  and  _557
REMARK  226  A    between atoms: _557  and  _558
REMARK  227  A    between atoms: _558  and  _559
REMARK  228  A    between atoms: _568  and  _570
REMARK  229  A    between atoms: _570  and  _571
REMARK  230  A    between atoms: _570  and  _573
REMARK  231  A    between atoms: _573  and  _574
REMARK                            x       y       z     vdW  Elec       q    Type
REMARK                         _______ _______ _______ _____ _____    ______ ____
ROOT
ATOM      1  O   HOH     1      20.338 -12.330   0.430  0.00  0.00    +0.000 OA
ENDROOT
TORSDOF 0
REMARK  Name = ../refined-set-2016/2p3a/2p3a_pocket.pdb
REMARK  231 active torsions:
REMARK  status: ('A' for Active; 'I' for Inactive)
REMARK    1  A    between atoms: _1  and  _3
REMARK    2  A    between atoms: _3  and  _4
REMARK    3  A    between atoms: _3  and  _6
REMARK    4  A    between atoms: _6  and  _7
REMARK    5  A    between atoms: _7  and  _8
REMARK    6  A    between atoms: _8  and  _9
REMARK    7  A    between atoms: _18  and  _20
REMARK    8  A    between atoms: _20  and  _21
REMARK    9  A    between atoms: _20  and  _23
REMARK   10  A    between atoms: _23  and  _24
REMARK   11  A    between atoms: _27  and  _29
REMARK   12  A    between atoms: _29  and  _30
REMARK   13  A    between atoms: _29  and  _32
REMARK   14  A    between atoms: _32  and  _33
REMARK   15  A    between atoms: _36  and  _38
REMARK   16  A    between atoms: _38  and  _39
REMARK   17  A    between atoms: _38  and  _41
REMARK   18  A    between atoms: _41  and  _42
REMARK   19  A    between atoms: _45  and  _47
REMARK   20  A    between atoms: _47  and  _48
REMARK   21  A    between atoms: _47  and  _50
REMARK   22  A    between atoms: _50  and  _51
REMARK   23  A    between atoms: _54  and  _56
REMARK   24  A    between atoms: _56  and  _57
REMARK   25  A    between atoms: _59  and  _61
REMARK   26  A    between atoms: _61  and  _62
REMARK   27  A    between atoms: _65  and  _67
REMARK   28  A    between atoms: _67  and  _68
REMARK   29  A    between atoms: _67  and  _70
REMARK   30  A    between atoms: _70  and  _71
REMARK   31  A    between atoms: _74  and  _76
REMARK   32  A    between atoms: _76  and  _77
REMARK   33  A    between atoms: _76  and  _79
REMARK   34  A    between atoms: _79  and  _80
REMARK   35  A    between atoms: _83  and  _85
REMARK   36  A    between atoms: _85  and  _86
REMARK   37  A    between atoms: _85  and  _88
REMARK   38  A    between atoms: _88  and  _89
REMARK   39  A    between atoms: _92  and  _94
REMARK   40  A    between atoms: _94  and  _95
REMARK   41  A    between atoms: _94  and  _97
REMARK   42  A    between atoms: _100  and  _102
REMARK   43  A    between atoms: _102  and  _103
REMARK   44  A    between atoms: _102  and  _105
REMARK   45  A    between atoms: _105  and  _106
REMARK   46  A    between atoms: _106  and  _107
REMARK   47  A    between atoms: _107  and  _108
REMARK   48  A    between atoms: _117  and  _119
REMARK   49  A    between atoms: _119  and  _120
REMARK   50  A    between atoms: _119  and  _122
REMARK   51  A    between atoms: _122  and  _123
REMARK   52  A    between atoms: _123  and  _124
REMARK   53  A    between atoms: _126  and  _128
REMARK   54  A    between atoms: _128  and  _129
REMARK   55  A    between atoms: _128  and  _131
REMARK   56  A    between atoms: _131  and  _132
REMARK   57  A    between atoms: _135  and  _137
REMARK   58  A    between atoms: _137  and  _138
REMARK   59  A    between atoms: _140  and  _142
REMARK   60  A    between atoms: _142  and  _143
REMARK   61  A    between atoms: _145  and  _147
REMARK   62  A    between atoms: _147  and  _148
REMARK   63  A    between atoms: _147  and  _150
REMARK   64  A    between atoms: _150  and  _151
REMARK   65  A    between atoms: _154  and  _156
REMARK   66  A    between atoms: _156  and  _157
REMARK   67  A    between atoms: _159  and  _161
REMARK   68  A    between atoms: _161  and  _162
REMARK   69  A    between atoms: _164  and  _166
REMARK   70  A    between atoms: _166  and  _167
REMARK   71  A    between atoms: _166  and  _169
REMARK   72  A    between atoms: _169  and  _170
REMARK   73  A    between atoms: _176  and  _178
REMARK   74  A    between atoms: _178  and  _179
REMARK   75  A    between atoms: _178  and  _181
REMARK   76  A    between atoms: _184  and  _186
REMARK   77  A    between atoms: _186  and  _187
REMARK   78  A    between atoms: _186  and  _189
REMARK   79  A    between atoms: _192  and  _194
REMARK   80  A    between atoms: _194  and  _195
REMARK   81  A    between atoms: _194  and  _197
REMARK   82  A    between atoms: _197  and  _198
REMARK   83  A    between atoms: _198  and  _199
REMARK   84  A    between atoms: _204  and  _206
REMARK   85  A    between atoms: _206  and  _207
REMARK   86  A    between atoms: _206  and  _209
REMARK   87  A    between atoms: _209  and  _210
REMARK   88  A    between atoms: _213  and  _215
REMARK   89  A    between atoms: _215  and  _216
REMARK   90  A    between atoms: _215  and  _218
REMARK   91  A    between atoms: _218  and  _219
REMARK   92  A    between atoms: _223  and  _224
REMARK   93  A    between atoms: _229  and  _231
REMARK   94  A    between atoms: _231  and  _232
REMARK   95  A    between atoms: _235  and  _237
REMARK   96  A    between atoms: _237  and  _238
REMARK   97  A    between atoms: _237  and  _240
REMARK   98  A    between atoms: _240  and  _241
REMARK   99  A    between atoms: _246  and  _248
REMARK  100  A    between atoms: _248  and  _249
REMARK  101  A    between atoms: _248  and  _251
REMARK  102  A    between atoms: _251  and  _252
REMARK  103  A    between atoms: _255  and  _257
REMARK  104  A    between atoms: _257  and  _258
REMARK  105  A    between atoms: _257  and  _260
REMARK  106  A    between atoms: _260  and  _261
REMARK  107  A    between atoms: _264  and  _266
REMARK  108  A    between atoms: _266  and  _267
REMARK  109  A    between atoms: _269  and  _271
REMARK  110  A    between atoms: _271  and  _272
REMARK  111  A    between atoms: _271  and  _274
REMARK  112  A    between atoms: _274  and  _275
REMARK  113  A    between atoms: _275  and  _276
REMARK  114  A    between atoms: _276  and  _277
REMARK  115  A    between atoms: _286  and  _288
REMARK  116  A    between atoms: _288  and  _289
REMARK  117  A    between atoms: _288  and  _291
REMARK  118  A    between atoms: _291  and  _292
REMARK  119  A    between atoms: _292  and  _293
REMARK  120  A    between atoms: _293  and  _294
REMARK  121  A    between atoms: _303  and  _305
REMARK  122  A    between atoms: _305  and  _306
REMARK  123  A    between atoms: _305  and  _308
REMARK  124  A    between atoms: _308  and  _309
REMARK  125  A    between atoms: _312  and  _314
REMARK  126  A    between atoms: _314  and  _315
REMARK  127  A    between atoms: _314  and  _317
REMARK  128  A    between atoms: _317  and  _318
REMARK  129  A    between atoms: _321  and  _323
REMARK  130  A    between atoms: _323  and  _324
REMARK  131  A    between atoms: _323  and  _326
REMARK  132  A    between atoms: _326  and  _327
REMARK  133  A    between atoms: _330  and  _332
REMARK  134  A    between atoms: _332  and  _333
REMARK  135  A    between atoms: _332  and  _335
REMARK  136  A    between atoms: _335  and  _336
REMARK  137  A    between atoms: _339  and  _341
REMARK  138  A    between atoms: _341  and  _342
REMARK  139  A    between atoms: _344  and  _346
REMARK  140  A    between atoms: _346  and  _347
REMARK  141  A    between atoms: _350  and  _352
REMARK  142  A    between atoms: _352  and  _353
REMARK  143  A    between atoms: _352  and  _355
REMARK  144  A    between atoms: _355  and  _356
REMARK  145  A    between atoms: _359  and  _361
REMARK  146  A    between atoms: _361  and  _362
REMARK  147  A    between atoms: _361  and  _364
REMARK  148  A    between atoms: _364  and  _365
REMARK  149  A    between atoms: _368  and  _370
REMARK  150  A    between atoms: _370  and  _371
REMARK  151  A    between atoms: _370  and  _373
REMARK  152  A    between atoms: _373  and  _374
REMARK  153  A    between atoms: _377  and  _379
REMARK  154  A    between atoms: _379  and  _380
REMARK  155  A    between atoms: _379  and  _382
REMARK  156  A    between atoms: _385  and  _387
REMARK  157  A    between atoms: _387  and  _388
REMARK  158  A    between atoms: _387  and  _390
REMARK  159  A    between atoms: _390  and  _391
REMARK  160  A    between atoms: _394  and  _396
REMARK  161  A    between atoms: _396  and  _397
REMARK  162  A    between atoms: _396  and  _399
REMARK  163  A    between atoms: _399  and  _400
REMARK  164  A    between atoms: _400  and  _401
REMARK  165  A    between atoms: _401  and  _402
REMARK  166  A    between atoms: _411  and  _413
REMARK  167  A    between atoms: _413  and  _414
REMARK  168  A    between atoms: _413  and  _416
REMARK  169  A    between atoms: _416  and  _417
REMARK  170  A    between atoms: _417  and  _418
REMARK  171  A    between atoms: _420  and  _422
REMARK  172  A    between atoms: _422  and  _423
REMARK  173  A    between atoms: _422  and  _425
REMARK  174  A    between atoms: _425  and  _426
REMARK  175  A    between atoms: _429  and  _431
REMARK  176  A    between atoms: _431  and  _432
REMARK  177  A    between atoms: _434  and  _436
REMARK  178  A    between atoms: _436  and  _437
REMARK  179  A    between atoms: _439  and  _441
REMARK  180  A    between atoms: _441  and  _442
REMARK  181  A    between atoms: _441  and  _444
REMARK  182  A    between atoms: _444  and  _445
REMARK  183  A    between atoms: _448  and  _450
REMARK  184  A    between atoms: _450  and  _451
REMARK  185  A    between atoms: _453  and  _455
REMARK  186  A    between atoms: _455  and  _456
REMARK  187  A    between atoms: _458  and  _460
REMARK  188  A    between atoms: _460  and  _461
REMARK  189  A    between atoms: _460  and  _463
REMARK  190  A    between atoms: _463  and  _464
REMARK  191  A    between atoms: _470  and  _472
REMARK  192  A    between atoms: _472  and  _473
REMARK  193  A    between atoms: _472  and  _475
REMARK  194  A    between atoms: _478  and  _480
REMARK  195  A    between atoms: _480  and  _481
REMARK  196  A    between atoms: _480  and  _483
REMARK  197  A    between atoms: _486  and  _488
REMARK  198  A    between atoms: _488  and  _489
REMARK  199  A    between atoms: _488  and  _491
REMARK  200  A    between atoms: _491  and  _492
REMARK  201  A    between atoms: _495  and  _497
REMARK  202  A    between atoms: _497  and  _498
REMARK  203  A    between atoms: _497  and  _500
REMARK  204  A    between atoms: _500  and  _501
REMARK  205  A    between atoms: _505  and  _506
REMARK  206  A    between atoms: _511  and  _513
REMARK  207  A    between atoms: _513  and  _514
REMARK  208  A    between atoms: _517  and  _519
REMARK  209  A    between atoms: _519  and  _520
REMARK  210  A    between atoms: _519  and  _522
REMARK  211  A    between atoms: _522  and  _523
REMARK  212  A    between atoms: _528  and  _530
REMARK  213  A    between atoms: _530  and  _531
REMARK  214  A    between atoms: _530  and  _533
REMARK  215  A    between atoms: _533  and  _534
REMARK  216  A    between atoms: _537  and  _539
REMARK  217  A    between atoms: _539  and  _540
REMARK  218  A    between atoms: _539  and  _542
REMARK  219  A    between atoms: _542  and  _543
REMARK  220  A    between atoms: _546  and  _548
REMARK  221  A    between atoms: _548  and  _549
REMARK  222  A    between atoms: _551  and  _553
REMARK  223  A    between atoms: _553  and  _554
REMARK  224  A    between atoms: _553  and  _556
REMARK  225  A    between atoms: _556  and  _557
REMARK  226  A    between atoms: _557  and  _558
REMARK  227  A    between atoms: _558  and  _559
REMARK  228  A    between atoms: _568  and  _570
REMARK  229  A    between atoms: _570  and  _571
REMARK  230  A    between atoms: _570  and  _573
REMARK  231  A    between atoms: _573  and  _574
REMARK                            x       y       z     vdW  Elec       q    Type
REMARK                         _______ _______ _______ _____ _____    ______ ____
ROOT
ATOM      1  O   HOH     1      23.708  -4.903  -4.064  0.00  0.00    +0.000 OA
ENDROOT
TORSDOF 0
REMARK  Name = ../refined-set-2016/2p3a/2p3a_pocket.pdb
REMARK  231 active torsions:
REMARK  status: ('A' for Active; 'I' for Inactive)
REMARK    1  A    between atoms: _1  and  _3
REMARK    2  A    between atoms: _3  and  _4
REMARK    3  A    between atoms: _3  and  _6
REMARK    4  A    between atoms: _6  and  _7
REMARK    5  A    between atoms: _7  and  _8
REMARK    6  A    between atoms: _8  and  _9
REMARK    7  A    between atoms: _18  and  _20
REMARK    8  A    between atoms: _20  and  _21
REMARK    9  A    between atoms: _20  and  _23
REMARK   10  A    between atoms: _23  and  _24
REMARK   11  A    between atoms: _27  and  _29
REMARK   12  A    between atoms: _29  and  _30
REMARK   13  A    between atoms: _29  and  _32
REMARK   14  A    between atoms: _32  and  _33
REMARK   15  A    between atoms: _36  and  _38
REMARK   16  A    between atoms: _38  and  _39
REMARK   17  A    between atoms: _38  and  _41
REMARK   18  A    between atoms: _41  and  _42
REMARK   19  A    between atoms: _45  and  _47
REMARK   20  A    between atoms: _47  and  _48
REMARK   21  A    between atoms: _47  and  _50
REMARK   22  A    between atoms: _50  and  _51
REMARK   23  A    between atoms: _54  and  _56
REMARK   24  A    between atoms: _56  and  _57
REMARK   25  A    between atoms: _59  and  _61
REMARK   26  A    between atoms: _61  and  _62
REMARK   27  A    between atoms: _65  and  _67
REMARK   28  A    between atoms: _67  and  _68
REMARK   29  A    between atoms: _67  and  _70
REMARK   30  A    between atoms: _70  and  _71
REMARK   31  A    between atoms: _74  and  _76
REMARK   32  A    between atoms: _76  and  _77
REMARK   33  A    between atoms: _76  and  _79
REMARK   34  A    between atoms: _79  and  _80
REMARK   35  A    between atoms: _83  and  _85
REMARK   36  A    between atoms: _85  and  _86
REMARK   37  A    between atoms: _85  and  _88
REMARK   38  A    between atoms: _88  and  _89
REMARK   39  A    between atoms: _92  and  _94
REMARK   40  A    between atoms: _94  and  _95
REMARK   41  A    between atoms: _94  and  _97
REMARK   42  A    between atoms: _100  and  _102
REMARK   43  A    between atoms: _102  and  _103
REMARK   44  A    between atoms: _102  and  _105
REMARK   45  A    between atoms: _105  and  _106
REMARK   46  A    between atoms: _106  and  _107
REMARK   47  A    between atoms: _107  and  _108
REMARK   48  A    between atoms: _117  and  _119
REMARK   49  A    between atoms: _119  and  _120
REMARK   50  A    between atoms: _119  and  _122
REMARK   51  A    between atoms: _122  and  _123
REMARK   52  A    between atoms: _123  and  _124
REMARK   53  A    between atoms: _126  and  _128
REMARK   54  A    between atoms: _128  and  _129
REMARK   55  A    between atoms: _128  and  _131
REMARK   56  A    between atoms: _131  and  _132
REMARK   57  A    between atoms: _135  and  _137
REMARK   58  A    between atoms: _137  and  _138
REMARK   59  A    between atoms: _140  and  _142
REMARK   60  A    between atoms: _142  and  _143
REMARK   61  A    between atoms: _145  and  _147
REMARK   62  A    between atoms: _147  and  _148
REMARK   63  A    between atoms: _147  and  _150
REMARK   64  A    between atoms: _150  and  _151
REMARK   65  A    between atoms: _154  and  _156
REMARK   66  A    between atoms: _156  and  _157
REMARK   67  A    between atoms: _159  and  _161
REMARK   68  A    between atoms: _161  and  _162
REMARK   69  A    between atoms: _164  and  _166
REMARK   70  A    between atoms: _166  and  _167
REMARK   71  A    between atoms: _166  and  _169
REMARK   72  A    between atoms: _169  and  _170
REMARK   73  A    between atoms: _176  and  _178
REMARK   74  A    between atoms: _178  and  _179
REMARK   75  A    between atoms: _178  and  _181
REMARK   76  A    between atoms: _184  and  _186
REMARK   77  A    between atoms: _186  and  _187
REMARK   78  A    between atoms: _186  and  _189
REMARK   79  A    between atoms: _192  and  _194
REMARK   80  A    between atoms: _194  and  _195
REMARK   81  A    between atoms: _194  and  _197
REMARK   82  A    between atoms: _197  and  _198
REMARK   83  A    between atoms: _198  and  _199
REMARK   84  A    between atoms: _204  and  _206
REMARK   85  A    between atoms: _206  and  _207
REMARK   86  A    between atoms: _206  and  _209
REMARK   87  A    between atoms: _209  and  _210
REMARK   88  A    between atoms: _213  and  _215
REMARK   89  A    between atoms: _215  and  _216
REMARK   90  A    between atoms: _215  and  _218
REMARK   91  A    between atoms: _218  and  _219
REMARK   92  A    between atoms: _223  and  _224
REMARK   93  A    between atoms: _229  and  _231
REMARK   94  A    between atoms: _231  and  _232
REMARK   95  A    between atoms: _235  and  _237
REMARK   96  A    between atoms: _237  and  _238
REMARK   97  A    between atoms: _237  and  _240
REMARK   98  A    between atoms: _240  and  _241
REMARK   99  A    between atoms: _246  and  _248
REMARK  100  A    between atoms: _248  and  _249
REMARK  101  A    between atoms: _248  and  _251
REMARK  102  A    between atoms: _251  and  _252
REMARK  103  A    between atoms: _255  and  _257
REMARK  104  A    between atoms: _257  and  _258
REMARK  105  A    between atoms: _257  and  _260
REMARK  106  A    between atoms: _260  and  _261
REMARK  107  A    between atoms: _264  and  _266
REMARK  108  A    between atoms: _266  and  _267
REMARK  109  A    between atoms: _269  and  _271
REMARK  110  A    between atoms: _271  and  _272
REMARK  111  A    between atoms: _271  and  _274
REMARK  112  A    between atoms: _274  and  _275
REMARK  113  A    between atoms: _275  and  _276
REMARK  114  A    between atoms: _276  and  _277
REMARK  115  A    between atoms: _286  and  _288
REMARK  116  A    between atoms: _288  and  _289
REMARK  117  A    between atoms: _288  and  _291
REMARK  118  A    between atoms: _291  and  _292
REMARK  119  A    between atoms: _292  and  _293
REMARK  120  A    between atoms: _293  and  _294
REMARK  121  A    between atoms: _303  and  _305
REMARK  122  A    between atoms: _305  and  _306
REMARK  123  A    between atoms: _305  and  _308
REMARK  124  A    between atoms: _308  and  _309
REMARK  125  A    between atoms: _312  and  _314
REMARK  126  A    between atoms: _314  and  _315
REMARK  127  A    between atoms: _314  and  _317
REMARK  128  A    between atoms: _317  and  _318
REMARK  129  A    between atoms: _321  and  _323
REMARK  130  A    between atoms: _323  and  _324
REMARK  131  A    between atoms: _323  and  _326
REMARK  132  A    between atoms: _326  and  _327
REMARK  133  A    between atoms: _330  and  _332
REMARK  134  A    between atoms: _332  and  _333
REMARK  135  A    between atoms: _332  and  _335
REMARK  136  A    between atoms: _335  and  _336
REMARK  137  A    between atoms: _339  and  _341
REMARK  138  A    between atoms: _341  and  _342
REMARK  139  A    between atoms: _344  and  _346
REMARK  140  A    between atoms: _346  and  _347
REMARK  141  A    between atoms: _350  and  _352
REMARK  142  A    between atoms: _352  and  _353
REMARK  143  A    between atoms: _352  and  _355
REMARK  144  A    between atoms: _355  and  _356
REMARK  145  A    between atoms: _359  and  _361
REMARK  146  A    between atoms: _361  and  _362
REMARK  147  A    between atoms: _361  and  _364
REMARK  148  A    between atoms: _364  and  _365
REMARK  149  A    between atoms: _368  and  _370
REMARK  150  A    between atoms: _370  and  _371
REMARK  151  A    between atoms: _370  and  _373
REMARK  152  A    between atoms: _373  and  _374
REMARK  153  A    between atoms: _377  and  _379
REMARK  154  A    between atoms: _379  and  _380
REMARK  155  A    between atoms: _379  and  _382
REMARK  156  A    between atoms: _385  and  _387
REMARK  157  A    between atoms: _387  and  _388
REMARK  158  A    between atoms: _387  and  _390
REMARK  159  A    between atoms: _390  and  _391
REMARK  160  A    between atoms: _394  and  _396
REMARK  161  A    between atoms: _396  and  _397
REMARK  162  A    between atoms: _396  and  _399
REMARK  163  A    between atoms: _399  and  _400
REMARK  164  A    between atoms: _400  and  _401
REMARK  165  A    between atoms: _401  and  _402
REMARK  166  A    between atoms: _411  and  _413
REMARK  167  A    between atoms: _413  and  _414
REMARK  168  A    between atoms: _413  and  _416
REMARK  169  A    between atoms: _416  and  _417
REMARK  170  A    between atoms: _417  and  _418
REMARK  171  A    between atoms: _420  and  _422
REMARK  172  A    between atoms: _422  and  _423
REMARK  173  A    between atoms: _422  and  _425
REMARK  174  A    between atoms: _425  and  _426
REMARK  175  A    between atoms: _429  and  _431
REMARK  176  A    between atoms: _431  and  _432
REMARK  177  A    between atoms: _434  and  _436
REMARK  178  A    between atoms: _436  and  _437
REMARK  179  A    between atoms: _439  and  _441
REMARK  180  A    between atoms: _441  and  _442
REMARK  181  A    between atoms: _441  and  _444
REMARK  182  A    between atoms: _444  and  _445
REMARK  183  A    between atoms: _448  and  _450
REMARK  184  A    between atoms: _450  and  _451
REMARK  185  A    between atoms: _453  and  _455
REMARK  186  A    between atoms: _455  and  _456
REMARK  187  A    between atoms: _458  and  _460
REMARK  188  A    between atoms: _460  and  _461
REMARK  189  A    between atoms: _460  and  _463
REMARK  190  A    between atoms: _463  and  _464
REMARK  191  A    between atoms: _470  and  _472
REMARK  192  A    between atoms: _472  and  _473
REMARK  193  A    between atoms: _472  and  _475
REMARK  194  A    between atoms: _478  and  _480
REMARK  195  A    between atoms: _480  and  _481
REMARK  196  A    between atoms: _480  and  _483
REMARK  197  A    between atoms: _486  and  _488
REMARK  198  A    between atoms: _488  and  _489
REMARK  199  A    between atoms: _488  and  _491
REMARK  200  A    between atoms: _491  and  _492
REMARK  201  A    between atoms: _495  and  _497
REMARK  202  A    between atoms: _497  and  _498
REMARK  203  A    between atoms: _497  and  _500
REMARK  204  A    between atoms: _500  and  _501
REMARK  205  A    between atoms: _505  and  _506
REMARK  206  A    between atoms: _511  and  _513
REMARK  207  A    between atoms: _513  and  _514
REMARK  208  A    between atoms: _517  and  _519
REMARK  209  A    between atoms: _519  and  _520
REMARK  210  A    between atoms: _519  and  _522
REMARK  211  A    between atoms: _522  and  _523
REMARK  212  A    between atoms: _528  and  _530
REMARK  213  A    between atoms: _530  and  _531
REMARK  214  A    between atoms: _530  and  _533
REMARK  215  A    between atoms: _533  and  _534
REMARK  216  A    between atoms: _537  and  _539
REMARK  217  A    between atoms: _539  and  _540
REMARK  218  A    between atoms: _539  and  _542
REMARK  219  A    between atoms: _542  and  _543
REMARK  220  A    between atoms: _546  and  _548
REMARK  221  A    between atoms: _548  and  _549
REMARK  222  A    between atoms: _551  and  _553
REMARK  223  A    between atoms: _553  and  _554
REMARK  224  A    between atoms: _553  and  _556
REMARK  225  A    between atoms: _556  and  _557
REMARK  226  A    between atoms: _557  and  _558
REMARK  227  A    between atoms: _558  and  _559
REMARK  228  A    between atoms: _568  and  _570
REMARK  229  A    between atoms: _570  and  _571
REMARK  230  A    between atoms: _570  and  _573
REMARK  231  A    between atoms: _573  and  _574
REMARK                            x       y       z     vdW  Elec       q    Type
REMARK                         _______ _______ _______ _____ _____    ______ ____
ROOT
ATOM      1  O   HOH     1      20.290   1.982 -12.772  0.00  0.00    +0.000 OA
ENDROOT
TORSDOF 0
REMARK  Name = ../refined-set-2016/2p3a/2p3a_pocket.pdb
REMARK  231 active torsions:
REMARK  status: ('A' for Active; 'I' for Inactive)
REMARK    1  A    between atoms: _1  and  _3
REMARK    2  A    between atoms: _3  and  _4
REMARK    3  A    between atoms: _3  and  _6
REMARK    4  A    between atoms: _6  and  _7
REMARK    5  A    between atoms: _7  and  _8
REMARK    6  A    between atoms: _8  and  _9
REMARK    7  A    between atoms: _18  and  _20
REMARK    8  A    between atoms: _20  and  _21
REMARK    9  A    between atoms: _20  and  _23
REMARK   10  A    between atoms: _23  and  _24
REMARK   11  A    between atoms: _27  and  _29
REMARK   12  A    between atoms: _29  and  _30
REMARK   13  A    between atoms: _29  and  _32
REMARK   14  A    between atoms: _32  and  _33
REMARK   15  A    between atoms: _36  and  _38
REMARK   16  A    between atoms: _38  and  _39
REMARK   17  A    between atoms: _38  and  _41
REMARK   18  A    between atoms: _41  and  _42
REMARK   19  A    between atoms: _45  and  _47
REMARK   20  A    between atoms: _47  and  _48
REMARK   21  A    between atoms: _47  and  _50
REMARK   22  A    between atoms: _50  and  _51
REMARK   23  A    between atoms: _54  and  _56
REMARK   24  A    between atoms: _56  and  _57
REMARK   25  A    between atoms: _59  and  _61
REMARK   26  A    between atoms: _61  and  _62
REMARK   27  A    between atoms: _65  and  _67
REMARK   28  A    between atoms: _67  and  _68
REMARK   29  A    between atoms: _67  and  _70
REMARK   30  A    between atoms: _70  and  _71
REMARK   31  A    between atoms: _74  and  _76
REMARK   32  A    between atoms: _76  and  _77
REMARK   33  A    between atoms: _76  and  _79
REMARK   34  A    between atoms: _79  and  _80
REMARK   35  A    between atoms: _83  and  _85
REMARK   36  A    between atoms: _85  and  _86
REMARK   37  A    between atoms: _85  and  _88
REMARK   38  A    between atoms: _88  and  _89
REMARK   39  A    between atoms: _92  and  _94
REMARK   40  A    between atoms: _94  and  _95
REMARK   41  A    between atoms: _94  and  _97
REMARK   42  A    between atoms: _100  and  _102
REMARK   43  A    between atoms: _102  and  _103
REMARK   44  A    between atoms: _102  and  _105
REMARK   45  A    between atoms: _105  and  _106
REMARK   46  A    between atoms: _106  and  _107
REMARK   47  A    between atoms: _107  and  _108
REMARK   48  A    between atoms: _117  and  _119
REMARK   49  A    between atoms: _119  and  _120
REMARK   50  A    between atoms: _119  and  _122
REMARK   51  A    between atoms: _122  and  _123
REMARK   52  A    between atoms: _123  and  _124
REMARK   53  A    between atoms: _126  and  _128
REMARK   54  A    between atoms: _128  and  _129
REMARK   55  A    between atoms: _128  and  _131
REMARK   56  A    between atoms: _131  and  _132
REMARK   57  A    between atoms: _135  and  _137
REMARK   58  A    between atoms: _137  and  _138
REMARK   59  A    between atoms: _140  and  _142
REMARK   60  A    between atoms: _142  and  _143
REMARK   61  A    between atoms: _145  and  _147
REMARK   62  A    between atoms: _147  and  _148
REMARK   63  A    between atoms: _147  and  _150
REMARK   64  A    between atoms: _150  and  _151
REMARK   65  A    between atoms: _154  and  _156
REMARK   66  A    between atoms: _156  and  _157
REMARK   67  A    between atoms: _159  and  _161
REMARK   68  A    between atoms: _161  and  _162
REMARK   69  A    between atoms: _164  and  _166
REMARK   70  A    between atoms: _166  and  _167
REMARK   71  A    between atoms: _166  and  _169
REMARK   72  A    between atoms: _169  and  _170
REMARK   73  A    between atoms: _176  and  _178
REMARK   74  A    between atoms: _178  and  _179
REMARK   75  A    between atoms: _178  and  _181
REMARK   76  A    between atoms: _184  and  _186
REMARK   77  A    between atoms: _186  and  _187
REMARK   78  A    between atoms: _186  and  _189
REMARK   79  A    between atoms: _192  and  _194
REMARK   80  A    between atoms: _194  and  _195
REMARK   81  A    between atoms: _194  and  _197
REMARK   82  A    between atoms: _197  and  _198
REMARK   83  A    between atoms: _198  and  _199
REMARK   84  A    between atoms: _204  and  _206
REMARK   85  A    between atoms: _206  and  _207
REMARK   86  A    between atoms: _206  and  _209
REMARK   87  A    between atoms: _209  and  _210
REMARK   88  A    between atoms: _213  and  _215
REMARK   89  A    between atoms: _215  and  _216
REMARK   90  A    between atoms: _215  and  _218
REMARK   91  A    between atoms: _218  and  _219
REMARK   92  A    between atoms: _223  and  _224
REMARK   93  A    between atoms: _229  and  _231
REMARK   94  A    between atoms: _231  and  _232
REMARK   95  A    between atoms: _235  and  _237
REMARK   96  A    between atoms: _237  and  _238
REMARK   97  A    between atoms: _237  and  _240
REMARK   98  A    between atoms: _240  and  _241
REMARK   99  A    between atoms: _246  and  _248
REMARK  100  A    between atoms: _248  and  _249
REMARK  101  A    between atoms: _248  and  _251
REMARK  102  A    between atoms: _251  and  _252
REMARK  103  A    between atoms: _255  and  _257
REMARK  104  A    between atoms: _257  and  _258
REMARK  105  A    between atoms: _257  and  _260
REMARK  106  A    between atoms: _260  and  _261
REMARK  107  A    between atoms: _264  and  _266
REMARK  108  A    between atoms: _266  and  _267
REMARK  109  A    between atoms: _269  and  _271
REMARK  110  A    between atoms: _271  and  _272
REMARK  111  A    between atoms: _271  and  _274
REMARK  112  A    between atoms: _274  and  _275
REMARK  113  A    between atoms: _275  and  _276
REMARK  114  A    between atoms: _276  and  _277
REMARK  115  A    between atoms: _286  and  _288
REMARK  116  A    between atoms: _288  and  _289
REMARK  117  A    between atoms: _288  and  _291
REMARK  118  A    between atoms: _291  and  _292
REMARK  119  A    between atoms: _292  and  _293
REMARK  120  A    between atoms: _293  and  _294
REMARK  121  A    between atoms: _303  and  _305
REMARK  122  A    between atoms: _305  and  _306
REMARK  123  A    between atoms: _305  and  _308
REMARK  124  A    between atoms: _308  and  _309
REMARK  125  A    between atoms: _312  and  _314
REMARK  126  A    between atoms: _314  and  _315
REMARK  127  A    between atoms: _314  and  _317
REMARK  128  A    between atoms: _317  and  _318
REMARK  129  A    between atoms: _321  and  _323
REMARK  130  A    between atoms: _323  and  _324
REMARK  131  A    between atoms: _323  and  _326
REMARK  132  A    between atoms: _326  and  _327
REMARK  133  A    between atoms: _330  and  _332
REMARK  134  A    between atoms: _332  and  _333
REMARK  135  A    between atoms: _332  and  _335
REMARK  136  A    between atoms: _335  and  _336
REMARK  137  A    between atoms: _339  and  _341
REMARK  138  A    between atoms: _341  and  _342
REMARK  139  A    between atoms: _344  and  _346
REMARK  140  A    between atoms: _346  and  _347
REMARK  141  A    between atoms: _350  and  _352
REMARK  142  A    between atoms: _352  and  _353
REMARK  143  A    between atoms: _352  and  _355
REMARK  144  A    between atoms: _355  and  _356
REMARK  145  A    between atoms: _359  and  _361
REMARK  146  A    between atoms: _361  and  _362
REMARK  147  A    between atoms: _361  and  _364
REMARK  148  A    between atoms: _364  and  _365
REMARK  149  A    between atoms: _368  and  _370
REMARK  150  A    between atoms: _370  and  _371
REMARK  151  A    between atoms: _370  and  _373
REMARK  152  A    between atoms: _373  and  _374
REMARK  153  A    between atoms: _377  and  _379
REMARK  154  A    between atoms: _379  and  _380
REMARK  155  A    between atoms: _379  and  _382
REMARK  156  A    between atoms: _385  and  _387
REMARK  157  A    between atoms: _387  and  _388
REMARK  158  A    between atoms: _387  and  _390
REMARK  159  A    between atoms: _390  and  _391
REMARK  160  A    between atoms: _394  and  _396
REMARK  161  A    between atoms: _396  and  _397
REMARK  162  A    between atoms: _396  and  _399
REMARK  163  A    between atoms: _399  and  _400
REMARK  164  A    between atoms: _400  and  _401
REMARK  165  A    between atoms: _401  and  _402
REMARK  166  A    between atoms: _411  and  _413
REMARK  167  A    between atoms: _413  and  _414
REMARK  168  A    between atoms: _413  and  _416
REMARK  169  A    between atoms: _416  and  _417
REMARK  170  A    between atoms: _417  and  _418
REMARK  171  A    between atoms: _420  and  _422
REMARK  172  A    between atoms: _422  and  _423
REMARK  173  A    between atoms: _422  and  _425
REMARK  174  A    between atoms: _425  and  _426
REMARK  175  A    between atoms: _429  and  _431
REMARK  176  A    between atoms: _431  and  _432
REMARK  177  A    between atoms: _434  and  _436
REMARK  178  A    between atoms: _436  and  _437
REMARK  179  A    between atoms: _439  and  _441
REMARK  180  A    between atoms: _441  and  _442
REMARK  181  A    between atoms: _441  and  _444
REMARK  182  A    between atoms: _444  and  _445
REMARK  183  A    between atoms: _448  and  _450
REMARK  184  A    between atoms: _450  and  _451
REMARK  185  A    between atoms: _453  and  _455
REMARK  186  A    between atoms: _455  and  _456
REMARK  187  A    between atoms: _458  and  _460
REMARK  188  A    between atoms: _460  and  _461
REMARK  189  A    between atoms: _460  and  _463
REMARK  190  A    between atoms: _463  and  _464
REMARK  191  A    between atoms: _470  and  _472
REMARK  192  A    between atoms: _472  and  _473
REMARK  193  A    between atoms: _472  and  _475
REMARK  194  A    between atoms: _478  and  _480
REMARK  195  A    between atoms: _480  and  _481
REMARK  196  A    between atoms: _480  and  _483
REMARK  197  A    between atoms: _486  and  _488
REMARK  198  A    between atoms: _488  and  _489
REMARK  199  A    between atoms: _488  and  _491
REMARK  200  A    between atoms: _491  and  _492
REMARK  201  A    between atoms: _495  and  _497
REMARK  202  A    between atoms: _497  and  _498
REMARK  203  A    between atoms: _497  and  _500
REMARK  204  A    between atoms: _500  and  _501
REMARK  205  A    between atoms: _505  and  _506
REMARK  206  A    between atoms: _511  and  _513
REMARK  207  A    between atoms: _513  and  _514
REMARK  208  A    between atoms: _517  and  _519
REMARK  209  A    between atoms: _519  and  _520
REMARK  210  A    between atoms: _519  and  _522
REMARK  211  A    between atoms: _522  and  _523
REMARK  212  A    between atoms: _528  and  _530
REMARK  213  A    between atoms: _530  and  _531
REMARK  214  A    between atoms: _530  and  _533
REMARK  215  A    between atoms: _533  and  _534
REMARK  216  A    between atoms: _537  and  _539
REMARK  217  A    between atoms: _539  and  _540
REMARK  218  A    between atoms: _539  and  _542
REMARK  219  A    between atoms: _542  and  _543
REMARK  220  A    between atoms: _546  and  _548
REMARK  221  A    between atoms: _548  and  _549
REMARK  222  A    between atoms: _551  and  _553
REMARK  223  A    between atoms: _553  and  _554
REMARK  224  A    between atoms: _553  and  _556
REMARK  225  A    between atoms: _556  and  _557
REMARK  226  A    between atoms: _557  and  _558
REMARK  227  A    between atoms: _558  and  _559
REMARK  228  A    between atoms: _568  and  _570
REMARK  229  A    between atoms: _570  and  _571
REMARK  230  A    between atoms: _570  and  _573
REMARK  231  A    between atoms: _573  and  _574
REMARK                            x       y       z     vdW  Elec       q    Type
REMARK                         _______ _______ _______ _____ _____    ______ ____
ROOT
ATOM      1  O   HOH     1      20.909  -5.213  -3.911  0.00  0.00    +0.000 OA
ENDROOT
TORSDOF 0
REMARK  Name = ../refined-set-2016/2p3a/2p3a_pocket.pdb
REMARK  231 active torsions:
REMARK  status: ('A' for Active; 'I' for Inactive)
REMARK    1  A    between atoms: _1  and  _3
REMARK    2  A    between atoms: _3  and  _4
REMARK    3  A    between atoms: _3  and  _6
REMARK    4  A    between atoms: _6  and  _7
REMARK    5  A    between atoms: _7  and  _8
REMARK    6  A    between atoms: _8  and  _9
REMARK    7  A    between atoms: _18  and  _20
REMARK    8  A    between atoms: _20  and  _21
REMARK    9  A    between atoms: _20  and  _23
REMARK   10  A    between atoms: _23  and  _24
REMARK   11  A    between atoms: _27  and  _29
REMARK   12  A    between atoms: _29  and  _30
REMARK   13  A    between atoms: _29  and  _32
REMARK   14  A    between atoms: _32  and  _33
REMARK   15  A    between atoms: _36  and  _38
REMARK   16  A    between atoms: _38  and  _39
REMARK   17  A    between atoms: _38  and  _41
REMARK   18  A    between atoms: _41  and  _42
REMARK   19  A    between atoms: _45  and  _47
REMARK   20  A    between atoms: _47  and  _48
REMARK   21  A    between atoms: _47  and  _50
REMARK   22  A    between atoms: _50  and  _51
REMARK   23  A    between atoms: _54  and  _56
REMARK   24  A    between atoms: _56  and  _57
REMARK   25  A    between atoms: _59  and  _61
REMARK   26  A    between atoms: _61  and  _62
REMARK   27  A    between atoms: _65  and  _67
REMARK   28  A    between atoms: _67  and  _68
REMARK   29  A    between atoms: _67  and  _70
REMARK   30  A    between atoms: _70  and  _71
REMARK   31  A    between atoms: _74  and  _76
REMARK   32  A    between atoms: _76  and  _77
REMARK   33  A    between atoms: _76  and  _79
REMARK   34  A    between atoms: _79  and  _80
REMARK   35  A    between atoms: _83  and  _85
REMARK   36  A    between atoms: _85  and  _86
REMARK   37  A    between atoms: _85  and  _88
REMARK   38  A    between atoms: _88  and  _89
REMARK   39  A    between atoms: _92  and  _94
REMARK   40  A    between atoms: _94  and  _95
REMARK   41  A    between atoms: _94  and  _97
REMARK   42  A    between atoms: _100  and  _102
REMARK   43  A    between atoms: _102  and  _103
REMARK   44  A    between atoms: _102  and  _105
REMARK   45  A    between atoms: _105  and  _106
REMARK   46  A    between atoms: _106  and  _107
REMARK   47  A    between atoms: _107  and  _108
REMARK   48  A    between atoms: _117  and  _119
REMARK   49  A    between atoms: _119  and  _120
REMARK   50  A    between atoms: _119  and  _122
REMARK   51  A    between atoms: _122  and  _123
REMARK   52  A    between atoms: _123  and  _124
REMARK   53  A    between atoms: _126  and  _128
REMARK   54  A    between atoms: _128  and  _129
REMARK   55  A    between atoms: _128  and  _131
REMARK   56  A    between atoms: _131  and  _132
REMARK   57  A    between atoms: _135  and  _137
REMARK   58  A    between atoms: _137  and  _138
REMARK   59  A    between atoms: _140  and  _142
REMARK   60  A    between atoms: _142  and  _143
REMARK   61  A    between atoms: _145  and  _147
REMARK   62  A    between atoms: _147  and  _148
REMARK   63  A    between atoms: _147  and  _150
REMARK   64  A    between atoms: _150  and  _151
REMARK   65  A    between atoms: _154  and  _156
REMARK   66  A    between atoms: _156  and  _157
REMARK   67  A    between atoms: _159  and  _161
REMARK   68  A    between atoms: _161  and  _162
REMARK   69  A    between atoms: _164  and  _166
REMARK   70  A    between atoms: _166  and  _167
REMARK   71  A    between atoms: _166  and  _169
REMARK   72  A    between atoms: _169  and  _170
REMARK   73  A    between atoms: _176  and  _178
REMARK   74  A    between atoms: _178  and  _179
REMARK   75  A    between atoms: _178  and  _181
REMARK   76  A    between atoms: _184  and  _186
REMARK   77  A    between atoms: _186  and  _187
REMARK   78  A    between atoms: _186  and  _189
REMARK   79  A    between atoms: _192  and  _194
REMARK   80  A    between atoms: _194  and  _195
REMARK   81  A    between atoms: _194  and  _197
REMARK   82  A    between atoms: _197  and  _198
REMARK   83  A    between atoms: _198  and  _199
REMARK   84  A    between atoms: _204  and  _206
REMARK   85  A    between atoms: _206  and  _207
REMARK   86  A    between atoms: _206  and  _209
REMARK   87  A    between atoms: _209  and  _210
REMARK   88  A    between atoms: _213  and  _215
REMARK   89  A    between atoms: _215  and  _216
REMARK   90  A    between atoms: _215  and  _218
REMARK   91  A    between atoms: _218  and  _219
REMARK   92  A    between atoms: _223  and  _224
REMARK   93  A    between atoms: _229  and  _231
REMARK   94  A    between atoms: _231  and  _232
REMARK   95  A    between atoms: _235  and  _237
REMARK   96  A    between atoms: _237  and  _238
REMARK   97  A    between atoms: _237  and  _240
REMARK   98  A    between atoms: _240  and  _241
REMARK   99  A    between atoms: _246  and  _248
REMARK  100  A    between atoms: _248  and  _249
REMARK  101  A    between atoms: _248  and  _251
REMARK  102  A    between atoms: _251  and  _252
REMARK  103  A    between atoms: _255  and  _257
REMARK  104  A    between atoms: _257  and  _258
REMARK  105  A    between atoms: _257  and  _260
REMARK  106  A    between atoms: _260  and  _261
REMARK  107  A    between atoms: _264  and  _266
REMARK  108  A    between atoms: _266  and  _267
REMARK  109  A    between atoms: _269  and  _271
REMARK  110  A    between atoms: _271  and  _272
REMARK  111  A    between atoms: _271  and  _274
REMARK  112  A    between atoms: _274  and  _275
REMARK  113  A    between atoms: _275  and  _276
REMARK  114  A    between atoms: _276  and  _277
REMARK  115  A    between atoms: _286  and  _288
REMARK  116  A    between atoms: _288  and  _289
REMARK  117  A    between atoms: _288  and  _291
REMARK  118  A    between atoms: _291  and  _292
REMARK  119  A    between atoms: _292  and  _293
REMARK  120  A    between atoms: _293  and  _294
REMARK  121  A    between atoms: _303  and  _305
REMARK  122  A    between atoms: _305  and  _306
REMARK  123  A    between atoms: _305  and  _308
REMARK  124  A    between atoms: _308  and  _309
REMARK  125  A    between atoms: _312  and  _314
REMARK  126  A    between atoms: _314  and  _315
REMARK  127  A    between atoms: _314  and  _317
REMARK  128  A    between atoms: _317  and  _318
REMARK  129  A    between atoms: _321  and  _323
REMARK  130  A    between atoms: _323  and  _324
REMARK  131  A    between atoms: _323  and  _326
REMARK  132  A    between atoms: _326  and  _327
REMARK  133  A    between atoms: _330  and  _332
REMARK  134  A    between atoms: _332  and  _333
REMARK  135  A    between atoms: _332  and  _335
REMARK  136  A    between atoms: _335  and  _336
REMARK  137  A    between atoms: _339  and  _341
REMARK  138  A    between atoms: _341  and  _342
REMARK  139  A    between atoms: _344  and  _346
REMARK  140  A    between atoms: _346  and  _347
REMARK  141  A    between atoms: _350  and  _352
REMARK  142  A    between atoms: _352  and  _353
REMARK  143  A    between atoms: _352  and  _355
REMARK  144  A    between atoms: _355  and  _356
REMARK  145  A    between atoms: _359  and  _361
REMARK  146  A    between atoms: _361  and  _362
REMARK  147  A    between atoms: _361  and  _364
REMARK  148  A    between atoms: _364  and  _365
REMARK  149  A    between atoms: _368  and  _370
REMARK  150  A    between atoms: _370  and  _371
REMARK  151  A    between atoms: _370  and  _373
REMARK  152  A    between atoms: _373  and  _374
REMARK  153  A    between atoms: _377  and  _379
REMARK  154  A    between atoms: _379  and  _380
REMARK  155  A    between atoms: _379  and  _382
REMARK  156  A    between atoms: _385  and  _387
REMARK  157  A    between atoms: _387  and  _388
REMARK  158  A    between atoms: _387  and  _390
REMARK  159  A    between atoms: _390  and  _391
REMARK  160  A    between atoms: _394  and  _396
REMARK  161  A    between atoms: _396  and  _397
REMARK  162  A    between atoms: _396  and  _399
REMARK  163  A    between atoms: _399  and  _400
REMARK  164  A    between atoms: _400  and  _401
REMARK  165  A    between atoms: _401  and  _402
REMARK  166  A    between atoms: _411  and  _413
REMARK  167  A    between atoms: _413  and  _414
REMARK  168  A    between atoms: _413  and  _416
REMARK  169  A    between atoms: _416  and  _417
REMARK  170  A    between atoms: _417  and  _418
REMARK  171  A    between atoms: _420  and  _422
REMARK  172  A    between atoms: _422  and  _423
REMARK  173  A    between atoms: _422  and  _425
REMARK  174  A    between atoms: _425  and  _426
REMARK  175  A    between atoms: _429  and  _431
REMARK  176  A    between atoms: _431  and  _432
REMARK  177  A    between atoms: _434  and  _436
REMARK  178  A    between atoms: _436  and  _437
REMARK  179  A    between atoms: _439  and  _441
REMARK  180  A    between atoms: _441  and  _442
REMARK  181  A    between atoms: _441  and  _444
REMARK  182  A    between atoms: _444  and  _445
REMARK  183  A    between atoms: _448  and  _450
REMARK  184  A    between atoms: _450  and  _451
REMARK  185  A    between atoms: _453  and  _455
REMARK  186  A    between atoms: _455  and  _456
REMARK  187  A    between atoms: _458  and  _460
REMARK  188  A    between atoms: _460  and  _461
REMARK  189  A    between atoms: _460  and  _463
REMARK  190  A    between atoms: _463  and  _464
REMARK  191  A    between atoms: _470  and  _472
REMARK  192  A    between atoms: _472  and  _473
REMARK  193  A    between atoms: _472  and  _475
REMARK  194  A    between atoms: _478  and  _480
REMARK  195  A    between atoms: _480  and  _481
REMARK  196  A    between atoms: _480  and  _483
REMARK  197  A    between atoms: _486  and  _488
REMARK  198  A    between atoms: _488  and  _489
REMARK  199  A    between atoms: _488  and  _491
REMARK  200  A    between atoms: _491  and  _492
REMARK  201  A    between atoms: _495  and  _497
REMARK  202  A    between atoms: _497  and  _498
REMARK  203  A    between atoms: _497  and  _500
REMARK  204  A    between atoms: _500  and  _501
REMARK  205  A    between atoms: _505  and  _506
REMARK  206  A    between atoms: _511  and  _513
REMARK  207  A    between atoms: _513  and  _514
REMARK  208  A    between atoms: _517  and  _519
REMARK  209  A    between atoms: _519  and  _520
REMARK  210  A    between atoms: _519  and  _522
REMARK  211  A    between atoms: _522  and  _523
REMARK  212  A    between atoms: _528  and  _530
REMARK  213  A    between atoms: _530  and  _531
REMARK  214  A    between atoms: _530  and  _533
REMARK  215  A    between atoms: _533  and  _534
REMARK  216  A    between atoms: _537  and  _539
REMARK  217  A    between atoms: _539  and  _540
REMARK  218  A    between atoms: _539  and  _542
REMARK  219  A    between atoms: _542  and  _543
REMARK  220  A    between atoms: _546  and  _548
REMARK  221  A    between atoms: _548  and  _549
REMARK  222  A    between atoms: _551  and  _553
REMARK  223  A    between atoms: _553  and  _554
REMARK  224  A    between atoms: _553  and  _556
REMARK  225  A    between atoms: _556  and  _557
REMARK  226  A    between atoms: _557  and  _558
REMARK  227  A    between atoms: _558  and  _559
REMARK  228  A    between atoms: _568  and  _570
REMARK  229  A    between atoms: _570  and  _571
REMARK  230  A    between atoms: _570  and  _573
REMARK  231  A    between atoms: _573  and  _574
REMARK                            x       y       z     vdW  Elec       q    Type
REMARK                         _______ _______ _______ _____ _____    ______ ____
ROOT
ATOM      1  O   HOH     1      19.643  12.098  -2.081  0.00  0.00    +0.000 OA
ENDROOT
TORSDOF 0
REMARK  Name = ../refined-set-2016/2p3a/2p3a_pocket.pdb
REMARK  231 active torsions:
REMARK  status: ('A' for Active; 'I' for Inactive)
REMARK    1  A    between atoms: _1  and  _3
REMARK    2  A    between atoms: _3  and  _4
REMARK    3  A    between atoms: _3  and  _6
REMARK    4  A    between atoms: _6  and  _7
REMARK    5  A    between atoms: _7  and  _8
REMARK    6  A    between atoms: _8  and  _9
REMARK    7  A    between atoms: _18  and  _20
REMARK    8  A    between atoms: _20  and  _21
REMARK    9  A    between atoms: _20  and  _23
REMARK   10  A    between atoms: _23  and  _24
REMARK   11  A    between atoms: _27  and  _29
REMARK   12  A    between atoms: _29  and  _30
REMARK   13  A    between atoms: _29  and  _32
REMARK   14  A    between atoms: _32  and  _33
REMARK   15  A    between atoms: _36  and  _38
REMARK   16  A    between atoms: _38  and  _39
REMARK   17  A    between atoms: _38  and  _41
REMARK   18  A    between atoms: _41  and  _42
REMARK   19  A    between atoms: _45  and  _47
REMARK   20  A    between atoms: _47  and  _48
REMARK   21  A    between atoms: _47  and  _50
REMARK   22  A    between atoms: _50  and  _51
REMARK   23  A    between atoms: _54  and  _56
REMARK   24  A    between atoms: _56  and  _57
REMARK   25  A    between atoms: _59  and  _61
REMARK   26  A    between atoms: _61  and  _62
REMARK   27  A    between atoms: _65  and  _67
REMARK   28  A    between atoms: _67  and  _68
REMARK   29  A    between atoms: _67  and  _70
REMARK   30  A    between atoms: _70  and  _71
REMARK   31  A    between atoms: _74  and  _76
REMARK   32  A    between atoms: _76  and  _77
REMARK   33  A    between atoms: _76  and  _79
REMARK   34  A    between atoms: _79  and  _80
REMARK   35  A    between atoms: _83  and  _85
REMARK   36  A    between atoms: _85  and  _86
REMARK   37  A    between atoms: _85  and  _88
REMARK   38  A    between atoms: _88  and  _89
REMARK   39  A    between atoms: _92  and  _94
REMARK   40  A    between atoms: _94  and  _95
REMARK   41  A    between atoms: _94  and  _97
REMARK   42  A    between atoms: _100  and  _102
REMARK   43  A    between atoms: _102  and  _103
REMARK   44  A    between atoms: _102  and  _105
REMARK   45  A    between atoms: _105  and  _106
REMARK   46  A    between atoms: _106  and  _107
REMARK   47  A    between atoms: _107  and  _108
REMARK   48  A    between atoms: _117  and  _119
REMARK   49  A    between atoms: _119  and  _120
REMARK   50  A    between atoms: _119  and  _122
REMARK   51  A    between atoms: _122  and  _123
REMARK   52  A    between atoms: _123  and  _124
REMARK   53  A    between atoms: _126  and  _128
REMARK   54  A    between atoms: _128  and  _129
REMARK   55  A    between atoms: _128  and  _131
REMARK   56  A    between atoms: _131  and  _132
REMARK   57  A    between atoms: _135  and  _137
REMARK   58  A    between atoms: _137  and  _138
REMARK   59  A    between atoms: _140  and  _142
REMARK   60  A    between atoms: _142  and  _143
REMARK   61  A    between atoms: _145  and  _147
REMARK   62  A    between atoms: _147  and  _148
REMARK   63  A    between atoms: _147  and  _150
REMARK   64  A    between atoms: _150  and  _151
REMARK   65  A    between atoms: _154  and  _156
REMARK   66  A    between atoms: _156  and  _157
REMARK   67  A    between atoms: _159  and  _161
REMARK   68  A    between atoms: _161  and  _162
REMARK   69  A    between atoms: _164  and  _166
REMARK   70  A    between atoms: _166  and  _167
REMARK   71  A    between atoms: _166  and  _169
REMARK   72  A    between atoms: _169  and  _170
REMARK   73  A    between atoms: _176  and  _178
REMARK   74  A    between atoms: _178  and  _179
REMARK   75  A    between atoms: _178  and  _181
REMARK   76  A    between atoms: _184  and  _186
REMARK   77  A    between atoms: _186  and  _187
REMARK   78  A    between atoms: _186  and  _189
REMARK   79  A    between atoms: _192  and  _194
REMARK   80  A    between atoms: _194  and  _195
REMARK   81  A    between atoms: _194  and  _197
REMARK   82  A    between atoms: _197  and  _198
REMARK   83  A    between atoms: _198  and  _199
REMARK   84  A    between atoms: _204  and  _206
REMARK   85  A    between atoms: _206  and  _207
REMARK   86  A    between atoms: _206  and  _209
REMARK   87  A    between atoms: _209  and  _210
REMARK   88  A    between atoms: _213  and  _215
REMARK   89  A    between atoms: _215  and  _216
REMARK   90  A    between atoms: _215  and  _218
REMARK   91  A    between atoms: _218  and  _219
REMARK   92  A    between atoms: _223  and  _224
REMARK   93  A    between atoms: _229  and  _231
REMARK   94  A    between atoms: _231  and  _232
REMARK   95  A    between atoms: _235  and  _237
REMARK   96  A    between atoms: _237  and  _238
REMARK   97  A    between atoms: _237  and  _240
REMARK   98  A    between atoms: _240  and  _241
REMARK   99  A    between atoms: _246  and  _248
REMARK  100  A    between atoms: _248  and  _249
REMARK  101  A    between atoms: _248  and  _251
REMARK  102  A    between atoms: _251  and  _252
REMARK  103  A    between atoms: _255  and  _257
REMARK  104  A    between atoms: _257  and  _258
REMARK  105  A    between atoms: _257  and  _260
REMARK  106  A    between atoms: _260  and  _261
REMARK  107  A    between atoms: _264  and  _266
REMARK  108  A    between atoms: _266  and  _267
REMARK  109  A    between atoms: _269  and  _271
REMARK  110  A    between atoms: _271  and  _272
REMARK  111  A    between atoms: _271  and  _274
REMARK  112  A    between atoms: _274  and  _275
REMARK  113  A    between atoms: _275  and  _276
REMARK  114  A    between atoms: _276  and  _277
REMARK  115  A    between atoms: _286  and  _288
REMARK  116  A    between atoms: _288  and  _289
REMARK  117  A    between atoms: _288  and  _291
REMARK  118  A    between atoms: _291  and  _292
REMARK  119  A    between atoms: _292  and  _293
REMARK  120  A    between atoms: _293  and  _294
REMARK  121  A    between atoms: _303  and  _305
REMARK  122  A    between atoms: _305  and  _306
REMARK  123  A    between atoms: _305  and  _308
REMARK  124  A    between atoms: _308  and  _309
REMARK  125  A    between atoms: _312  and  _314
REMARK  126  A    between atoms: _314  and  _315
REMARK  127  A    between atoms: _314  and  _317
REMARK  128  A    between atoms: _317  and  _318
REMARK  129  A    between atoms: _321  and  _323
REMARK  130  A    between atoms: _323  and  _324
REMARK  131  A    between atoms: _323  and  _326
REMARK  132  A    between atoms: _326  and  _327
REMARK  133  A    between atoms: _330  and  _332
REMARK  134  A    between atoms: _332  and  _333
REMARK  135  A    between atoms: _332  and  _335
REMARK  136  A    between atoms: _335  and  _336
REMARK  137  A    between atoms: _339  and  _341
REMARK  138  A    between atoms: _341  and  _342
REMARK  139  A    between atoms: _344  and  _346
REMARK  140  A    between atoms: _346  and  _347
REMARK  141  A    between atoms: _350  and  _352
REMARK  142  A    between atoms: _352  and  _353
REMARK  143  A    between atoms: _352  and  _355
REMARK  144  A    between atoms: _355  and  _356
REMARK  145  A    between atoms: _359  and  _361
REMARK  146  A    between atoms: _361  and  _362
REMARK  147  A    between atoms: _361  and  _364
REMARK  148  A    between atoms: _364  and  _365
REMARK  149  A    between atoms: _368  and  _370
REMARK  150  A    between atoms: _370  and  _371
REMARK  151  A    between atoms: _370  and  _373
REMARK  152  A    between atoms: _373  and  _374
REMARK  153  A    between atoms: _377  and  _379
REMARK  154  A    between atoms: _379  and  _380
REMARK  155  A    between atoms: _379  and  _382
REMARK  156  A    between atoms: _385  and  _387
REMARK  157  A    between atoms: _387  and  _388
REMARK  158  A    between atoms: _387  and  _390
REMARK  159  A    between atoms: _390  and  _391
REMARK  160  A    between atoms: _394  and  _396
REMARK  161  A    between atoms: _396  and  _397
REMARK  162  A    between atoms: _396  and  _399
REMARK  163  A    between atoms: _399  and  _400
REMARK  164  A    between atoms: _400  and  _401
REMARK  165  A    between atoms: _401  and  _402
REMARK  166  A    between atoms: _411  and  _413
REMARK  167  A    between atoms: _413  and  _414
REMARK  168  A    between atoms: _413  and  _416
REMARK  169  A    between atoms: _416  and  _417
REMARK  170  A    between atoms: _417  and  _418
REMARK  171  A    between atoms: _420  and  _422
REMARK  172  A    between atoms: _422  and  _423
REMARK  173  A    between atoms: _422  and  _425
REMARK  174  A    between atoms: _425  and  _426
REMARK  175  A    between atoms: _429  and  _431
REMARK  176  A    between atoms: _431  and  _432
REMARK  177  A    between atoms: _434  and  _436
REMARK  178  A    between atoms: _436  and  _437
REMARK  179  A    between atoms: _439  and  _441
REMARK  180  A    between atoms: _441  and  _442
REMARK  181  A    between atoms: _441  and  _444
REMARK  182  A    between atoms: _444  and  _445
REMARK  183  A    between atoms: _448  and  _450
REMARK  184  A    between atoms: _450  and  _451
REMARK  185  A    between atoms: _453  and  _455
REMARK  186  A    between atoms: _455  and  _456
REMARK  187  A    between atoms: _458  and  _460
REMARK  188  A    between atoms: _460  and  _461
REMARK  189  A    between atoms: _460  and  _463
REMARK  190  A    between atoms: _463  and  _464
REMARK  191  A    between atoms: _470  and  _472
REMARK  192  A    between atoms: _472  and  _473
REMARK  193  A    between atoms: _472  and  _475
REMARK  194  A    between atoms: _478  and  _480
REMARK  195  A    between atoms: _480  and  _481
REMARK  196  A    between atoms: _480  and  _483
REMARK  197  A    between atoms: _486  and  _488
REMARK  198  A    between atoms: _488  and  _489
REMARK  199  A    between atoms: _488  and  _491
REMARK  200  A    between atoms: _491  and  _492
REMARK  201  A    between atoms: _495  and  _497
REMARK  202  A    between atoms: _497  and  _498
REMARK  203  A    between atoms: _497  and  _500
REMARK  204  A    between atoms: _500  and  _501
REMARK  205  A    between atoms: _505  and  _506
REMARK  206  A    between atoms: _511  and  _513
REMARK  207  A    between atoms: _513  and  _514
REMARK  208  A    between atoms: _517  and  _519
REMARK  209  A    between atoms: _519  and  _520
REMARK  210  A    between atoms: _519  and  _522
REMARK  211  A    between atoms: _522  and  _523
REMARK  212  A    between atoms: _528  and  _530
REMARK  213  A    between atoms: _530  and  _531
REMARK  214  A    between atoms: _530  and  _533
REMARK  215  A    between atoms: _533  and  _534
REMARK  216  A    between atoms: _537  and  _539
REMARK  217  A    between atoms: _539  and  _540
REMARK  218  A    between atoms: _539  and  _542
REMARK  219  A    between atoms: _542  and  _543
REMARK  220  A    between atoms: _546  and  _548
REMARK  221  A    between atoms: _548  and  _549
REMARK  222  A    between atoms: _551  and  _553
REMARK  223  A    between atoms: _553  and  _554
REMARK  224  A    between atoms: _553  and  _556
REMARK  225  A    between atoms: _556  and  _557
REMARK  226  A    between atoms: _557  and  _558
REMARK  227  A    between atoms: _558  and  _559
REMARK  228  A    between atoms: _568  and  _570
REMARK  229  A    between atoms: _570  and  _571
REMARK  230  A    between atoms: _570  and  _573
REMARK  231  A    between atoms: _573  and  _574
REMARK                            x       y       z     vdW  Elec       q    Type
REMARK                         _______ _______ _______ _____ _____    ______ ____
ROOT
ATOM      1  O   HOH     1      18.709  -5.938 -10.376  0.00  0.00    +0.000 OA
ENDROOT
TORSDOF 0
REMARK  Name = ../refined-set-2016/2p3a/2p3a_pocket.pdb
REMARK  231 active torsions:
REMARK  status: ('A' for Active; 'I' for Inactive)
REMARK    1  A    between atoms: _1  and  _3
REMARK    2  A    between atoms: _3  and  _4
REMARK    3  A    between atoms: _3  and  _6
REMARK    4  A    between atoms: _6  and  _7
REMARK    5  A    between atoms: _7  and  _8
REMARK    6  A    between atoms: _8  and  _9
REMARK    7  A    between atoms: _18  and  _20
REMARK    8  A    between atoms: _20  and  _21
REMARK    9  A    between atoms: _20  and  _23
REMARK   10  A    between atoms: _23  and  _24
REMARK   11  A    between atoms: _27  and  _29
REMARK   12  A    between atoms: _29  and  _30
REMARK   13  A    between atoms: _29  and  _32
REMARK   14  A    between atoms: _32  and  _33
REMARK   15  A    between atoms: _36  and  _38
REMARK   16  A    between atoms: _38  and  _39
REMARK   17  A    between atoms: _38  and  _41
REMARK   18  A    between atoms: _41  and  _42
REMARK   19  A    between atoms: _45  and  _47
REMARK   20  A    between atoms: _47  and  _48
REMARK   21  A    between atoms: _47  and  _50
REMARK   22  A    between atoms: _50  and  _51
REMARK   23  A    between atoms: _54  and  _56
REMARK   24  A    between atoms: _56  and  _57
REMARK   25  A    between atoms: _59  and  _61
REMARK   26  A    between atoms: _61  and  _62
REMARK   27  A    between atoms: _65  and  _67
REMARK   28  A    between atoms: _67  and  _68
REMARK   29  A    between atoms: _67  and  _70
REMARK   30  A    between atoms: _70  and  _71
REMARK   31  A    between atoms: _74  and  _76
REMARK   32  A    between atoms: _76  and  _77
REMARK   33  A    between atoms: _76  and  _79
REMARK   34  A    between atoms: _79  and  _80
REMARK   35  A    between atoms: _83  and  _85
REMARK   36  A    between atoms: _85  and  _86
REMARK   37  A    between atoms: _85  and  _88
REMARK   38  A    between atoms: _88  and  _89
REMARK   39  A    between atoms: _92  and  _94
REMARK   40  A    between atoms: _94  and  _95
REMARK   41  A    between atoms: _94  and  _97
REMARK   42  A    between atoms: _100  and  _102
REMARK   43  A    between atoms: _102  and  _103
REMARK   44  A    between atoms: _102  and  _105
REMARK   45  A    between atoms: _105  and  _106
REMARK   46  A    between atoms: _106  and  _107
REMARK   47  A    between atoms: _107  and  _108
REMARK   48  A    between atoms: _117  and  _119
REMARK   49  A    between atoms: _119  and  _120
REMARK   50  A    between atoms: _119  and  _122
REMARK   51  A    between atoms: _122  and  _123
REMARK   52  A    between atoms: _123  and  _124
REMARK   53  A    between atoms: _126  and  _128
REMARK   54  A    between atoms: _128  and  _129
REMARK   55  A    between atoms: _128  and  _131
REMARK   56  A    between atoms: _131  and  _132
REMARK   57  A    between atoms: _135  and  _137
REMARK   58  A    between atoms: _137  and  _138
REMARK   59  A    between atoms: _140  and  _142
REMARK   60  A    between atoms: _142  and  _143
REMARK   61  A    between atoms: _145  and  _147
REMARK   62  A    between atoms: _147  and  _148
REMARK   63  A    between atoms: _147  and  _150
REMARK   64  A    between atoms: _150  and  _151
REMARK   65  A    between atoms: _154  and  _156
REMARK   66  A    between atoms: _156  and  _157
REMARK   67  A    between atoms: _159  and  _161
REMARK   68  A    between atoms: _161  and  _162
REMARK   69  A    between atoms: _164  and  _166
REMARK   70  A    between atoms: _166  and  _167
REMARK   71  A    between atoms: _166  and  _169
REMARK   72  A    between atoms: _169  and  _170
REMARK   73  A    between atoms: _176  and  _178
REMARK   74  A    between atoms: _178  and  _179
REMARK   75  A    between atoms: _178  and  _181
REMARK   76  A    between atoms: _184  and  _186
REMARK   77  A    between atoms: _186  and  _187
REMARK   78  A    between atoms: _186  and  _189
REMARK   79  A    between atoms: _192  and  _194
REMARK   80  A    between atoms: _194  and  _195
REMARK   81  A    between atoms: _194  and  _197
REMARK   82  A    between atoms: _197  and  _198
REMARK   83  A    between atoms: _198  and  _199
REMARK   84  A    between atoms: _204  and  _206
REMARK   85  A    between atoms: _206  and  _207
REMARK   86  A    between atoms: _206  and  _209
REMARK   87  A    between atoms: _209  and  _210
REMARK   88  A    between atoms: _213  and  _215
REMARK   89  A    between atoms: _215  and  _216
REMARK   90  A    between atoms: _215  and  _218
REMARK   91  A    between atoms: _218  and  _219
REMARK   92  A    between atoms: _223  and  _224
REMARK   93  A    between atoms: _229  and  _231
REMARK   94  A    between atoms: _231  and  _232
REMARK   95  A    between atoms: _235  and  _237
REMARK   96  A    between atoms: _237  and  _238
REMARK   97  A    between atoms: _237  and  _240
REMARK   98  A    between atoms: _240  and  _241
REMARK   99  A    between atoms: _246  and  _248
REMARK  100  A    between atoms: _248  and  _249
REMARK  101  A    between atoms: _248  and  _251
REMARK  102  A    between atoms: _251  and  _252
REMARK  103  A    between atoms: _255  and  _257
REMARK  104  A    between atoms: _257  and  _258
REMARK  105  A    between atoms: _257  and  _260
REMARK  106  A    between atoms: _260  and  _261
REMARK  107  A    between atoms: _264  and  _266
REMARK  108  A    between atoms: _266  and  _267
REMARK  109  A    between atoms: _269  and  _271
REMARK  110  A    between atoms: _271  and  _272
REMARK  111  A    between atoms: _271  and  _274
REMARK  112  A    between atoms: _274  and  _275
REMARK  113  A    between atoms: _275  and  _276
REMARK  114  A    between atoms: _276  and  _277
REMARK  115  A    between atoms: _286  and  _288
REMARK  116  A    between atoms: _288  and  _289
REMARK  117  A    between atoms: _288  and  _291
REMARK  118  A    between atoms: _291  and  _292
REMARK  119  A    between atoms: _292  and  _293
REMARK  120  A    between atoms: _293  and  _294
REMARK  121  A    between atoms: _303  and  _305
REMARK  122  A    between atoms: _305  and  _306
REMARK  123  A    between atoms: _305  and  _308
REMARK  124  A    between atoms: _308  and  _309
REMARK  125  A    between atoms: _312  and  _314
REMARK  126  A    between atoms: _314  and  _315
REMARK  127  A    between atoms: _314  and  _317
REMARK  128  A    between atoms: _317  and  _318
REMARK  129  A    between atoms: _321  and  _323
REMARK  130  A    between atoms: _323  and  _324
REMARK  131  A    between atoms: _323  and  _326
REMARK  132  A    between atoms: _326  and  _327
REMARK  133  A    between atoms: _330  and  _332
REMARK  134  A    between atoms: _332  and  _333
REMARK  135  A    between atoms: _332  and  _335
REMARK  136  A    between atoms: _335  and  _336
REMARK  137  A    between atoms: _339  and  _341
REMARK  138  A    between atoms: _341  and  _342
REMARK  139  A    between atoms: _344  and  _346
REMARK  140  A    between atoms: _346  and  _347
REMARK  141  A    between atoms: _350  and  _352
REMARK  142  A    between atoms: _352  and  _353
REMARK  143  A    between atoms: _352  and  _355
REMARK  144  A    between atoms: _355  and  _356
REMARK  145  A    between atoms: _359  and  _361
REMARK  146  A    between atoms: _361  and  _362
REMARK  147  A    between atoms: _361  and  _364
REMARK  148  A    between atoms: _364  and  _365
REMARK  149  A    between atoms: _368  and  _370
REMARK  150  A    between atoms: _370  and  _371
REMARK  151  A    between atoms: _370  and  _373
REMARK  152  A    between atoms: _373  and  _374
REMARK  153  A    between atoms: _377  and  _379
REMARK  154  A    between atoms: _379  and  _380
REMARK  155  A    between atoms: _379  and  _382
REMARK  156  A    between atoms: _385  and  _387
REMARK  157  A    between atoms: _387  and  _388
REMARK  158  A    between atoms: _387  and  _390
REMARK  159  A    between atoms: _390  and  _391
REMARK  160  A    between atoms: _394  and  _396
REMARK  161  A    between atoms: _396  and  _397
REMARK  162  A    between atoms: _396  and  _399
REMARK  163  A    between atoms: _399  and  _400
REMARK  164  A    between atoms: _400  and  _401
REMARK  165  A    between atoms: _401  and  _402
REMARK  166  A    between atoms: _411  and  _413
REMARK  167  A    between atoms: _413  and  _414
REMARK  168  A    between atoms: _413  and  _416
REMARK  169  A    between atoms: _416  and  _417
REMARK  170  A    between atoms: _417  and  _418
REMARK  171  A    between atoms: _420  and  _422
REMARK  172  A    between atoms: _422  and  _423
REMARK  173  A    between atoms: _422  and  _425
REMARK  174  A    between atoms: _425  and  _426
REMARK  175  A    between atoms: _429  and  _431
REMARK  176  A    between atoms: _431  and  _432
REMARK  177  A    between atoms: _434  and  _436
REMARK  178  A    between atoms: _436  and  _437
REMARK  179  A    between atoms: _439  and  _441
REMARK  180  A    between atoms: _441  and  _442
REMARK  181  A    between atoms: _441  and  _444
REMARK  182  A    between atoms: _444  and  _445
REMARK  183  A    between atoms: _448  and  _450
REMARK  184  A    between atoms: _450  and  _451
REMARK  185  A    between atoms: _453  and  _455
REMARK  186  A    between atoms: _455  and  _456
REMARK  187  A    between atoms: _458  and  _460
REMARK  188  A    between atoms: _460  and  _461
REMARK  189  A    between atoms: _460  and  _463
REMARK  190  A    between atoms: _463  and  _464
REMARK  191  A    between atoms: _470  and  _472
REMARK  192  A    between atoms: _472  and  _473
REMARK  193  A    between atoms: _472  and  _475
REMARK  194  A    between atoms: _478  and  _480
REMARK  195  A    between atoms: _480  and  _481
REMARK  196  A    between atoms: _480  and  _483
REMARK  197  A    between atoms: _486  and  _488
REMARK  198  A    between atoms: _488  and  _489
REMARK  199  A    between atoms: _488  and  _491
REMARK  200  A    between atoms: _491  and  _492
REMARK  201  A    between atoms: _495  and  _497
REMARK  202  A    between atoms: _497  and  _498
REMARK  203  A    between atoms: _497  and  _500
REMARK  204  A    between atoms: _500  and  _501
REMARK  205  A    between atoms: _505  and  _506
REMARK  206  A    between atoms: _511  and  _513
REMARK  207  A    between atoms: _513  and  _514
REMARK  208  A    between atoms: _517  and  _519
REMARK  209  A    between atoms: _519  and  _520
REMARK  210  A    between atoms: _519  and  _522
REMARK  211  A    between atoms: _522  and  _523
REMARK  212  A    between atoms: _528  and  _530
REMARK  213  A    between atoms: _530  and  _531
REMARK  214  A    between atoms: _530  and  _533
REMARK  215  A    between atoms: _533  and  _534
REMARK  216  A    between atoms: _537  and  _539
REMARK  217  A    between atoms: _539  and  _540
REMARK  218  A    between atoms: _539  and  _542
REMARK  219  A    between atoms: _542  and  _543
REMARK  220  A    between atoms: _546  and  _548
REMARK  221  A    between atoms: _548  and  _549
REMARK  222  A    between atoms: _551  and  _553
REMARK  223  A    between atoms: _553  and  _554
REMARK  224  A    between atoms: _553  and  _556
REMARK  225  A    between atoms: _556  and  _557
REMARK  226  A    between atoms: _557  and  _558
REMARK  227  A    between atoms: _558  and  _559
REMARK  228  A    between atoms: _568  and  _570
REMARK  229  A    between atoms: _570  and  _571
REMARK  230  A    between atoms: _570  and  _573
REMARK  231  A    between atoms: _573  and  _574
REMARK                            x       y       z     vdW  Elec       q    Type
REMARK                         _______ _______ _______ _____ _____    ______ ____
ROOT
ATOM      1  O   HOH     1      23.972  -3.794 -10.848  0.00  0.00    +0.000 OA
ENDROOT
TORSDOF 0
REMARK  Name = ../refined-set-2016/2p3a/2p3a_pocket.pdb
REMARK  231 active torsions:
REMARK  status: ('A' for Active; 'I' for Inactive)
REMARK    1  A    between atoms: _1  and  _3
REMARK    2  A    between atoms: _3  and  _4
REMARK    3  A    between atoms: _3  and  _6
REMARK    4  A    between atoms: _6  and  _7
REMARK    5  A    between atoms: _7  and  _8
REMARK    6  A    between atoms: _8  and  _9
REMARK    7  A    between atoms: _18  and  _20
REMARK    8  A    between atoms: _20  and  _21
REMARK    9  A    between atoms: _20  and  _23
REMARK   10  A    between atoms: _23  and  _24
REMARK   11  A    between atoms: _27  and  _29
REMARK   12  A    between atoms: _29  and  _30
REMARK   13  A    between atoms: _29  and  _32
REMARK   14  A    between atoms: _32  and  _33
REMARK   15  A    between atoms: _36  and  _38
REMARK   16  A    between atoms: _38  and  _39
REMARK   17  A    between atoms: _38  and  _41
REMARK   18  A    between atoms: _41  and  _42
REMARK   19  A    between atoms: _45  and  _47
REMARK   20  A    between atoms: _47  and  _48
REMARK   21  A    between atoms: _47  and  _50
REMARK   22  A    between atoms: _50  and  _51
REMARK   23  A    between atoms: _54  and  _56
REMARK   24  A    between atoms: _56  and  _57
REMARK   25  A    between atoms: _59  and  _61
REMARK   26  A    between atoms: _61  and  _62
REMARK   27  A    between atoms: _65  and  _67
REMARK   28  A    between atoms: _67  and  _68
REMARK   29  A    between atoms: _67  and  _70
REMARK   30  A    between atoms: _70  and  _71
REMARK   31  A    between atoms: _74  and  _76
REMARK   32  A    between atoms: _76  and  _77
REMARK   33  A    between atoms: _76  and  _79
REMARK   34  A    between atoms: _79  and  _80
REMARK   35  A    between atoms: _83  and  _85
REMARK   36  A    between atoms: _85  and  _86
REMARK   37  A    between atoms: _85  and  _88
REMARK   38  A    between atoms: _88  and  _89
REMARK   39  A    between atoms: _92  and  _94
REMARK   40  A    between atoms: _94  and  _95
REMARK   41  A    between atoms: _94  and  _97
REMARK   42  A    between atoms: _100  and  _102
REMARK   43  A    between atoms: _102  and  _103
REMARK   44  A    between atoms: _102  and  _105
REMARK   45  A    between atoms: _105  and  _106
REMARK   46  A    between atoms: _106  and  _107
REMARK   47  A    between atoms: _107  and  _108
REMARK   48  A    between atoms: _117  and  _119
REMARK   49  A    between atoms: _119  and  _120
REMARK   50  A    between atoms: _119  and  _122
REMARK   51  A    between atoms: _122  and  _123
REMARK   52  A    between atoms: _123  and  _124
REMARK   53  A    between atoms: _126  and  _128
REMARK   54  A    between atoms: _128  and  _129
REMARK   55  A    between atoms: _128  and  _131
REMARK   56  A    between atoms: _131  and  _132
REMARK   57  A    between atoms: _135  and  _137
REMARK   58  A    between atoms: _137  and  _138
REMARK   59  A    between atoms: _140  and  _142
REMARK   60  A    between atoms: _142  and  _143
REMARK   61  A    between atoms: _145  and  _147
REMARK   62  A    between atoms: _147  and  _148
REMARK   63  A    between atoms: _147  and  _150
REMARK   64  A    between atoms: _150  and  _151
REMARK   65  A    between atoms: _154  and  _156
REMARK   66  A    between atoms: _156  and  _157
REMARK   67  A    between atoms: _159  and  _161
REMARK   68  A    between atoms: _161  and  _162
REMARK   69  A    between atoms: _164  and  _166
REMARK   70  A    between atoms: _166  and  _167
REMARK   71  A    between atoms: _166  and  _169
REMARK   72  A    between atoms: _169  and  _170
REMARK   73  A    between atoms: _176  and  _178
REMARK   74  A    between atoms: _178  and  _179
REMARK   75  A    between atoms: _178  and  _181
REMARK   76  A    between atoms: _184  and  _186
REMARK   77  A    between atoms: _186  and  _187
REMARK   78  A    between atoms: _186  and  _189
REMARK   79  A    between atoms: _192  and  _194
REMARK   80  A    between atoms: _194  and  _195
REMARK   81  A    between atoms: _194  and  _197
REMARK   82  A    between atoms: _197  and  _198
REMARK   83  A    between atoms: _198  and  _199
REMARK   84  A    between atoms: _204  and  _206
REMARK   85  A    between atoms: _206  and  _207
REMARK   86  A    between atoms: _206  and  _209
REMARK   87  A    between atoms: _209  and  _210
REMARK   88  A    between atoms: _213  and  _215
REMARK   89  A    between atoms: _215  and  _216
REMARK   90  A    between atoms: _215  and  _218
REMARK   91  A    between atoms: _218  and  _219
REMARK   92  A    between atoms: _223  and  _224
REMARK   93  A    between atoms: _229  and  _231
REMARK   94  A    between atoms: _231  and  _232
REMARK   95  A    between atoms: _235  and  _237
REMARK   96  A    between atoms: _237  and  _238
REMARK   97  A    between atoms: _237  and  _240
REMARK   98  A    between atoms: _240  and  _241
REMARK   99  A    between atoms: _246  and  _248
REMARK  100  A    between atoms: _248  and  _249
REMARK  101  A    between atoms: _248  and  _251
REMARK  102  A    between atoms: _251  and  _252
REMARK  103  A    between atoms: _255  and  _257
REMARK  104  A    between atoms: _257  and  _258
REMARK  105  A    between atoms: _257  and  _260
REMARK  106  A    between atoms: _260  and  _261
REMARK  107  A    between atoms: _264  and  _266
REMARK  108  A    between atoms: _266  and  _267
REMARK  109  A    between atoms: _269  and  _271
REMARK  110  A    between atoms: _271  and  _272
REMARK  111  A    between atoms: _271  and  _274
REMARK  112  A    between atoms: _274  and  _275
REMARK  113  A    between atoms: _275  and  _276
REMARK  114  A    between atoms: _276  and  _277
REMARK  115  A    between atoms: _286  and  _288
REMARK  116  A    between atoms: _288  and  _289
REMARK  117  A    between atoms: _288  and  _291
REMARK  118  A    between atoms: _291  and  _292
REMARK  119  A    between atoms: _292  and  _293
REMARK  120  A    between atoms: _293  and  _294
REMARK  121  A    between atoms: _303  and  _305
REMARK  122  A    between atoms: _305  and  _306
REMARK  123  A    between atoms: _305  and  _308
REMARK  124  A    between atoms: _308  and  _309
REMARK  125  A    between atoms: _312  and  _314
REMARK  126  A    between atoms: _314  and  _315
REMARK  127  A    between atoms: _314  and  _317
REMARK  128  A    between atoms: _317  and  _318
REMARK  129  A    between atoms: _321  and  _323
REMARK  130  A    between atoms: _323  and  _324
REMARK  131  A    between atoms: _323  and  _326
REMARK  132  A    between atoms: _326  and  _327
REMARK  133  A    between atoms: _330  and  _332
REMARK  134  A    between atoms: _332  and  _333
REMARK  135  A    between atoms: _332  and  _335
REMARK  136  A    between atoms: _335  and  _336
REMARK  137  A    between atoms: _339  and  _341
REMARK  138  A    between atoms: _341  and  _342
REMARK  139  A    between atoms: _344  and  _346
REMARK  140  A    between atoms: _346  and  _347
REMARK  141  A    between atoms: _350  and  _352
REMARK  142  A    between atoms: _352  and  _353
REMARK  143  A    between atoms: _352  and  _355
REMARK  144  A    between atoms: _355  and  _356
REMARK  145  A    between atoms: _359  and  _361
REMARK  146  A    between atoms: _361  and  _362
REMARK  147  A    between atoms: _361  and  _364
REMARK  148  A    between atoms: _364  and  _365
REMARK  149  A    between atoms: _368  and  _370
REMARK  150  A    between atoms: _370  and  _371
REMARK  151  A    between atoms: _370  and  _373
REMARK  152  A    between atoms: _373  and  _374
REMARK  153  A    between atoms: _377  and  _379
REMARK  154  A    between atoms: _379  and  _380
REMARK  155  A    between atoms: _379  and  _382
REMARK  156  A    between atoms: _385  and  _387
REMARK  157  A    between atoms: _387  and  _388
REMARK  158  A    between atoms: _387  and  _390
REMARK  159  A    between atoms: _390  and  _391
REMARK  160  A    between atoms: _394  and  _396
REMARK  161  A    between atoms: _396  and  _397
REMARK  162  A    between atoms: _396  and  _399
REMARK  163  A    between atoms: _399  and  _400
REMARK  164  A    between atoms: _400  and  _401
REMARK  165  A    between atoms: _401  and  _402
REMARK  166  A    between atoms: _411  and  _413
REMARK  167  A    between atoms: _413  and  _414
REMARK  168  A    between atoms: _413  and  _416
REMARK  169  A    between atoms: _416  and  _417
REMARK  170  A    between atoms: _417  and  _418
REMARK  171  A    between atoms: _420  and  _422
REMARK  172  A    between atoms: _422  and  _423
REMARK  173  A    between atoms: _422  and  _425
REMARK  174  A    between atoms: _425  and  _426
REMARK  175  A    between atoms: _429  and  _431
REMARK  176  A    between atoms: _431  and  _432
REMARK  177  A    between atoms: _434  and  _436
REMARK  178  A    between atoms: _436  and  _437
REMARK  179  A    between atoms: _439  and  _441
REMARK  180  A    between atoms: _441  and  _442
REMARK  181  A    between atoms: _441  and  _444
REMARK  182  A    between atoms: _444  and  _445
REMARK  183  A    between atoms: _448  and  _450
REMARK  184  A    between atoms: _450  and  _451
REMARK  185  A    between atoms: _453  and  _455
REMARK  186  A    between atoms: _455  and  _456
REMARK  187  A    between atoms: _458  and  _460
REMARK  188  A    between atoms: _460  and  _461
REMARK  189  A    between atoms: _460  and  _463
REMARK  190  A    between atoms: _463  and  _464
REMARK  191  A    between atoms: _470  and  _472
REMARK  192  A    between atoms: _472  and  _473
REMARK  193  A    between atoms: _472  and  _475
REMARK  194  A    between atoms: _478  and  _480
REMARK  195  A    between atoms: _480  and  _481
REMARK  196  A    between atoms: _480  and  _483
REMARK  197  A    between atoms: _486  and  _488
REMARK  198  A    between atoms: _488  and  _489
REMARK  199  A    between atoms: _488  and  _491
REMARK  200  A    between atoms: _491  and  _492
REMARK  201  A    between atoms: _495  and  _497
REMARK  202  A    between atoms: _497  and  _498
REMARK  203  A    between atoms: _497  and  _500
REMARK  204  A    between atoms: _500  and  _501
REMARK  205  A    between atoms: _505  and  _506
REMARK  206  A    between atoms: _511  and  _513
REMARK  207  A    between atoms: _513  and  _514
REMARK  208  A    between atoms: _517  and  _519
REMARK  209  A    between atoms: _519  and  _520
REMARK  210  A    between atoms: _519  and  _522
REMARK  211  A    between atoms: _522  and  _523
REMARK  212  A    between atoms: _528  and  _530
REMARK  213  A    between atoms: _530  and  _531
REMARK  214  A    between atoms: _530  and  _533
REMARK  215  A    between atoms: _533  and  _534
REMARK  216  A    between atoms: _537  and  _539
REMARK  217  A    between atoms: _539  and  _540
REMARK  218  A    between atoms: _539  and  _542
REMARK  219  A    between atoms: _542  and  _543
REMARK  220  A    between atoms: _546  and  _548
REMARK  221  A    between atoms: _548  and  _549
REMARK  222  A    between atoms: _551  and  _553
REMARK  223  A    between atoms: _553  and  _554
REMARK  224  A    between atoms: _553  and  _556
REMARK  225  A    between atoms: _556  and  _557
REMARK  226  A    between atoms: _557  and  _558
REMARK  227  A    between atoms: _558  and  _559
REMARK  228  A    between atoms: _568  and  _570
REMARK  229  A    between atoms: _570  and  _571
REMARK  230  A    between atoms: _570  and  _573
REMARK  231  A    between atoms: _573  and  _574
REMARK                            x       y       z     vdW  Elec       q    Type
REMARK                         _______ _______ _______ _____ _____    ______ ____
ROOT
ATOM      1  O   HOH     1      17.564  12.513   0.744  0.00  0.00    +0.000 OA
ENDROOT
TORSDOF 0
REMARK  Name = ../refined-set-2016/2p3a/2p3a_pocket.pdb
REMARK  231 active torsions:
REMARK  status: ('A' for Active; 'I' for Inactive)
REMARK    1  A    between atoms: _1  and  _3
REMARK    2  A    between atoms: _3  and  _4
REMARK    3  A    between atoms: _3  and  _6
REMARK    4  A    between atoms: _6  and  _7
REMARK    5  A    between atoms: _7  and  _8
REMARK    6  A    between atoms: _8  and  _9
REMARK    7  A    between atoms: _18  and  _20
REMARK    8  A    between atoms: _20  and  _21
REMARK    9  A    between atoms: _20  and  _23
REMARK   10  A    between atoms: _23  and  _24
REMARK   11  A    between atoms: _27  and  _29
REMARK   12  A    between atoms: _29  and  _30
REMARK   13  A    between atoms: _29  and  _32
REMARK   14  A    between atoms: _32  and  _33
REMARK   15  A    between atoms: _36  and  _38
REMARK   16  A    between atoms: _38  and  _39
REMARK   17  A    between atoms: _38  and  _41
REMARK   18  A    between atoms: _41  and  _42
REMARK   19  A    between atoms: _45  and  _47
REMARK   20  A    between atoms: _47  and  _48
REMARK   21  A    between atoms: _47  and  _50
REMARK   22  A    between atoms: _50  and  _51
REMARK   23  A    between atoms: _54  and  _56
REMARK   24  A    between atoms: _56  and  _57
REMARK   25  A    between atoms: _59  and  _61
REMARK   26  A    between atoms: _61  and  _62
REMARK   27  A    between atoms: _65  and  _67
REMARK   28  A    between atoms: _67  and  _68
REMARK   29  A    between atoms: _67  and  _70
REMARK   30  A    between atoms: _70  and  _71
REMARK   31  A    between atoms: _74  and  _76
REMARK   32  A    between atoms: _76  and  _77
REMARK   33  A    between atoms: _76  and  _79
REMARK   34  A    between atoms: _79  and  _80
REMARK   35  A    between atoms: _83  and  _85
REMARK   36  A    between atoms: _85  and  _86
REMARK   37  A    between atoms: _85  and  _88
REMARK   38  A    between atoms: _88  and  _89
REMARK   39  A    between atoms: _92  and  _94
REMARK   40  A    between atoms: _94  and  _95
REMARK   41  A    between atoms: _94  and  _97
REMARK   42  A    between atoms: _100  and  _102
REMARK   43  A    between atoms: _102  and  _103
REMARK   44  A    between atoms: _102  and  _105
REMARK   45  A    between atoms: _105  and  _106
REMARK   46  A    between atoms: _106  and  _107
REMARK   47  A    between atoms: _107  and  _108
REMARK   48  A    between atoms: _117  and  _119
REMARK   49  A    between atoms: _119  and  _120
REMARK   50  A    between atoms: _119  and  _122
REMARK   51  A    between atoms: _122  and  _123
REMARK   52  A    between atoms: _123  and  _124
REMARK   53  A    between atoms: _126  and  _128
REMARK   54  A    between atoms: _128  and  _129
REMARK   55  A    between atoms: _128  and  _131
REMARK   56  A    between atoms: _131  and  _132
REMARK   57  A    between atoms: _135  and  _137
REMARK   58  A    between atoms: _137  and  _138
REMARK   59  A    between atoms: _140  and  _142
REMARK   60  A    between atoms: _142  and  _143
REMARK   61  A    between atoms: _145  and  _147
REMARK   62  A    between atoms: _147  and  _148
REMARK   63  A    between atoms: _147  and  _150
REMARK   64  A    between atoms: _150  and  _151
REMARK   65  A    between atoms: _154  and  _156
REMARK   66  A    between atoms: _156  and  _157
REMARK   67  A    between atoms: _159  and  _161
REMARK   68  A    between atoms: _161  and  _162
REMARK   69  A    between atoms: _164  and  _166
REMARK   70  A    between atoms: _166  and  _167
REMARK   71  A    between atoms: _166  and  _169
REMARK   72  A    between atoms: _169  and  _170
REMARK   73  A    between atoms: _176  and  _178
REMARK   74  A    between atoms: _178  and  _179
REMARK   75  A    between atoms: _178  and  _181
REMARK   76  A    between atoms: _184  and  _186
REMARK   77  A    between atoms: _186  and  _187
REMARK   78  A    between atoms: _186  and  _189
REMARK   79  A    between atoms: _192  and  _194
REMARK   80  A    between atoms: _194  and  _195
REMARK   81  A    between atoms: _194  and  _197
REMARK   82  A    between atoms: _197  and  _198
REMARK   83  A    between atoms: _198  and  _199
REMARK   84  A    between atoms: _204  and  _206
REMARK   85  A    between atoms: _206  and  _207
REMARK   86  A    between atoms: _206  and  _209
REMARK   87  A    between atoms: _209  and  _210
REMARK   88  A    between atoms: _213  and  _215
REMARK   89  A    between atoms: _215  and  _216
REMARK   90  A    between atoms: _215  and  _218
REMARK   91  A    between atoms: _218  and  _219
REMARK   92  A    between atoms: _223  and  _224
REMARK   93  A    between atoms: _229  and  _231
REMARK   94  A    between atoms: _231  and  _232
REMARK   95  A    between atoms: _235  and  _237
REMARK   96  A    between atoms: _237  and  _238
REMARK   97  A    between atoms: _237  and  _240
REMARK   98  A    between atoms: _240  and  _241
REMARK   99  A    between atoms: _246  and  _248
REMARK  100  A    between atoms: _248  and  _249
REMARK  101  A    between atoms: _248  and  _251
REMARK  102  A    between atoms: _251  and  _252
REMARK  103  A    between atoms: _255  and  _257
REMARK  104  A    between atoms: _257  and  _258
REMARK  105  A    between atoms: _257  and  _260
REMARK  106  A    between atoms: _260  and  _261
REMARK  107  A    between atoms: _264  and  _266
REMARK  108  A    between atoms: _266  and  _267
REMARK  109  A    between atoms: _269  and  _271
REMARK  110  A    between atoms: _271  and  _272
REMARK  111  A    between atoms: _271  and  _274
REMARK  112  A    between atoms: _274  and  _275
REMARK  113  A    between atoms: _275  and  _276
REMARK  114  A    between atoms: _276  and  _277
REMARK  115  A    between atoms: _286  and  _288
REMARK  116  A    between atoms: _288  and  _289
REMARK  117  A    between atoms: _288  and  _291
REMARK  118  A    between atoms: _291  and  _292
REMARK  119  A    between atoms: _292  and  _293
REMARK  120  A    between atoms: _293  and  _294
REMARK  121  A    between atoms: _303  and  _305
REMARK  122  A    between atoms: _305  and  _306
REMARK  123  A    between atoms: _305  and  _308
REMARK  124  A    between atoms: _308  and  _309
REMARK  125  A    between atoms: _312  and  _314
REMARK  126  A    between atoms: _314  and  _315
REMARK  127  A    between atoms: _314  and  _317
REMARK  128  A    between atoms: _317  and  _318
REMARK  129  A    between atoms: _321  and  _323
REMARK  130  A    between atoms: _323  and  _324
REMARK  131  A    between atoms: _323  and  _326
REMARK  132  A    between atoms: _326  and  _327
REMARK  133  A    between atoms: _330  and  _332
REMARK  134  A    between atoms: _332  and  _333
REMARK  135  A    between atoms: _332  and  _335
REMARK  136  A    between atoms: _335  and  _336
REMARK  137  A    between atoms: _339  and  _341
REMARK  138  A    between atoms: _341  and  _342
REMARK  139  A    between atoms: _344  and  _346
REMARK  140  A    between atoms: _346  and  _347
REMARK  141  A    between atoms: _350  and  _352
REMARK  142  A    between atoms: _352  and  _353
REMARK  143  A    between atoms: _352  and  _355
REMARK  144  A    between atoms: _355  and  _356
REMARK  145  A    between atoms: _359  and  _361
REMARK  146  A    between atoms: _361  and  _362
REMARK  147  A    between atoms: _361  and  _364
REMARK  148  A    between atoms: _364  and  _365
REMARK  149  A    between atoms: _368  and  _370
REMARK  150  A    between atoms: _370  and  _371
REMARK  151  A    between atoms: _370  and  _373
REMARK  152  A    between atoms: _373  and  _374
REMARK  153  A    between atoms: _377  and  _379
REMARK  154  A    between atoms: _379  and  _380
REMARK  155  A    between atoms: _379  and  _382
REMARK  156  A    between atoms: _385  and  _387
REMARK  157  A    between atoms: _387  and  _388
REMARK  158  A    between atoms: _387  and  _390
REMARK  159  A    between atoms: _390  and  _391
REMARK  160  A    between atoms: _394  and  _396
REMARK  161  A    between atoms: _396  and  _397
REMARK  162  A    between atoms: _396  and  _399
REMARK  163  A    between atoms: _399  and  _400
REMARK  164  A    between atoms: _400  and  _401
REMARK  165  A    between atoms: _401  and  _402
REMARK  166  A    between atoms: _411  and  _413
REMARK  167  A    between atoms: _413  and  _414
REMARK  168  A    between atoms: _413  and  _416
REMARK  169  A    between atoms: _416  and  _417
REMARK  170  A    between atoms: _417  and  _418
REMARK  171  A    between atoms: _420  and  _422
REMARK  172  A    between atoms: _422  and  _423
REMARK  173  A    between atoms: _422  and  _425
REMARK  174  A    between atoms: _425  and  _426
REMARK  175  A    between atoms: _429  and  _431
REMARK  176  A    between atoms: _431  and  _432
REMARK  177  A    between atoms: _434  and  _436
REMARK  178  A    between atoms: _436  and  _437
REMARK  179  A    between atoms: _439  and  _441
REMARK  180  A    between atoms: _441  and  _442
REMARK  181  A    between atoms: _441  and  _444
REMARK  182  A    between atoms: _444  and  _445
REMARK  183  A    between atoms: _448  and  _450
REMARK  184  A    between atoms: _450  and  _451
REMARK  185  A    between atoms: _453  and  _455
REMARK  186  A    between atoms: _455  and  _456
REMARK  187  A    between atoms: _458  and  _460
REMARK  188  A    between atoms: _460  and  _461
REMARK  189  A    between atoms: _460  and  _463
REMARK  190  A    between atoms: _463  and  _464
REMARK  191  A    between atoms: _470  and  _472
REMARK  192  A    between atoms: _472  and  _473
REMARK  193  A    between atoms: _472  and  _475
REMARK  194  A    between atoms: _478  and  _480
REMARK  195  A    between atoms: _480  and  _481
REMARK  196  A    between atoms: _480  and  _483
REMARK  197  A    between atoms: _486  and  _488
REMARK  198  A    between atoms: _488  and  _489
REMARK  199  A    between atoms: _488  and  _491
REMARK  200  A    between atoms: _491  and  _492
REMARK  201  A    between atoms: _495  and  _497
REMARK  202  A    between atoms: _497  and  _498
REMARK  203  A    between atoms: _497  and  _500
REMARK  204  A    between atoms: _500  and  _501
REMARK  205  A    between atoms: _505  and  _506
REMARK  206  A    between atoms: _511  and  _513
REMARK  207  A    between atoms: _513  and  _514
REMARK  208  A    between atoms: _517  and  _519
REMARK  209  A    between atoms: _519  and  _520
REMARK  210  A    between atoms: _519  and  _522
REMARK  211  A    between atoms: _522  and  _523
REMARK  212  A    between atoms: _528  and  _530
REMARK  213  A    between atoms: _530  and  _531
REMARK  214  A    between atoms: _530  and  _533
REMARK  215  A    between atoms: _533  and  _534
REMARK  216  A    between atoms: _537  and  _539
REMARK  217  A    between atoms: _539  and  _540
REMARK  218  A    between atoms: _539  and  _542
REMARK  219  A    between atoms: _542  and  _543
REMARK  220  A    between atoms: _546  and  _548
REMARK  221  A    between atoms: _548  and  _549
REMARK  222  A    between atoms: _551  and  _553
REMARK  223  A    between atoms: _553  and  _554
REMARK  224  A    between atoms: _553  and  _556
REMARK  225  A    between atoms: _556  and  _557
REMARK  226  A    between atoms: _557  and  _558
REMARK  227  A    between atoms: _558  and  _559
REMARK  228  A    between atoms: _568  and  _570
REMARK  229  A    between atoms: _570  and  _571
REMARK  230  A    between atoms: _570  and  _573
REMARK  231  A    between atoms: _573  and  _574
REMARK                            x       y       z     vdW  Elec       q    Type
REMARK                         _______ _______ _______ _____ _____    ______ ____
ROOT
ATOM      1  O   HOH     1      19.463   7.653   3.580  0.00  0.00    +0.000 OA
ENDROOT
TORSDOF 0
REMARK  Name = ../refined-set-2016/2p3a/2p3a_pocket.pdb
REMARK  231 active torsions:
REMARK  status: ('A' for Active; 'I' for Inactive)
REMARK    1  A    between atoms: _1  and  _3
REMARK    2  A    between atoms: _3  and  _4
REMARK    3  A    between atoms: _3  and  _6
REMARK    4  A    between atoms: _6  and  _7
REMARK    5  A    between atoms: _7  and  _8
REMARK    6  A    between atoms: _8  and  _9
REMARK    7  A    between atoms: _18  and  _20
REMARK    8  A    between atoms: _20  and  _21
REMARK    9  A    between atoms: _20  and  _23
REMARK   10  A    between atoms: _23  and  _24
REMARK   11  A    between atoms: _27  and  _29
REMARK   12  A    between atoms: _29  and  _30
REMARK   13  A    between atoms: _29  and  _32
REMARK   14  A    between atoms: _32  and  _33
REMARK   15  A    between atoms: _36  and  _38
REMARK   16  A    between atoms: _38  and  _39
REMARK   17  A    between atoms: _38  and  _41
REMARK   18  A    between atoms: _41  and  _42
REMARK   19  A    between atoms: _45  and  _47
REMARK   20  A    between atoms: _47  and  _48
REMARK   21  A    between atoms: _47  and  _50
REMARK   22  A    between atoms: _50  and  _51
REMARK   23  A    between atoms: _54  and  _56
REMARK   24  A    between atoms: _56  and  _57
REMARK   25  A    between atoms: _59  and  _61
REMARK   26  A    between atoms: _61  and  _62
REMARK   27  A    between atoms: _65  and  _67
REMARK   28  A    between atoms: _67  and  _68
REMARK   29  A    between atoms: _67  and  _70
REMARK   30  A    between atoms: _70  and  _71
REMARK   31  A    between atoms: _74  and  _76
REMARK   32  A    between atoms: _76  and  _77
REMARK   33  A    between atoms: _76  and  _79
REMARK   34  A    between atoms: _79  and  _80
REMARK   35  A    between atoms: _83  and  _85
REMARK   36  A    between atoms: _85  and  _86
REMARK   37  A    between atoms: _85  and  _88
REMARK   38  A    between atoms: _88  and  _89
REMARK   39  A    between atoms: _92  and  _94
REMARK   40  A    between atoms: _94  and  _95
REMARK   41  A    between atoms: _94  and  _97
REMARK   42  A    between atoms: _100  and  _102
REMARK   43  A    between atoms: _102  and  _103
REMARK   44  A    between atoms: _102  and  _105
REMARK   45  A    between atoms: _105  and  _106
REMARK   46  A    between atoms: _106  and  _107
REMARK   47  A    between atoms: _107  and  _108
REMARK   48  A    between atoms: _117  and  _119
REMARK   49  A    between atoms: _119  and  _120
REMARK   50  A    between atoms: _119  and  _122
REMARK   51  A    between atoms: _122  and  _123
REMARK   52  A    between atoms: _123  and  _124
REMARK   53  A    between atoms: _126  and  _128
REMARK   54  A    between atoms: _128  and  _129
REMARK   55  A    between atoms: _128  and  _131
REMARK   56  A    between atoms: _131  and  _132
REMARK   57  A    between atoms: _135  and  _137
REMARK   58  A    between atoms: _137  and  _138
REMARK   59  A    between atoms: _140  and  _142
REMARK   60  A    between atoms: _142  and  _143
REMARK   61  A    between atoms: _145  and  _147
REMARK   62  A    between atoms: _147  and  _148
REMARK   63  A    between atoms: _147  and  _150
REMARK   64  A    between atoms: _150  and  _151
REMARK   65  A    between atoms: _154  and  _156
REMARK   66  A    between atoms: _156  and  _157
REMARK   67  A    between atoms: _159  and  _161
REMARK   68  A    between atoms: _161  and  _162
REMARK   69  A    between atoms: _164  and  _166
REMARK   70  A    between atoms: _166  and  _167
REMARK   71  A    between atoms: _166  and  _169
REMARK   72  A    between atoms: _169  and  _170
REMARK   73  A    between atoms: _176  and  _178
REMARK   74  A    between atoms: _178  and  _179
REMARK   75  A    between atoms: _178  and  _181
REMARK   76  A    between atoms: _184  and  _186
REMARK   77  A    between atoms: _186  and  _187
REMARK   78  A    between atoms: _186  and  _189
REMARK   79  A    between atoms: _192  and  _194
REMARK   80  A    between atoms: _194  and  _195
REMARK   81  A    between atoms: _194  and  _197
REMARK   82  A    between atoms: _197  and  _198
REMARK   83  A    between atoms: _198  and  _199
REMARK   84  A    between atoms: _204  and  _206
REMARK   85  A    between atoms: _206  and  _207
REMARK   86  A    between atoms: _206  and  _209
REMARK   87  A    between atoms: _209  and  _210
REMARK   88  A    between atoms: _213  and  _215
REMARK   89  A    between atoms: _215  and  _216
REMARK   90  A    between atoms: _215  and  _218
REMARK   91  A    between atoms: _218  and  _219
REMARK   92  A    between atoms: _223  and  _224
REMARK   93  A    between atoms: _229  and  _231
REMARK   94  A    between atoms: _231  and  _232
REMARK   95  A    between atoms: _235  and  _237
REMARK   96  A    between atoms: _237  and  _238
REMARK   97  A    between atoms: _237  and  _240
REMARK   98  A    between atoms: _240  and  _241
REMARK   99  A    between atoms: _246  and  _248
REMARK  100  A    between atoms: _248  and  _249
REMARK  101  A    between atoms: _248  and  _251
REMARK  102  A    between atoms: _251  and  _252
REMARK  103  A    between atoms: _255  and  _257
REMARK  104  A    between atoms: _257  and  _258
REMARK  105  A    between atoms: _257  and  _260
REMARK  106  A    between atoms: _260  and  _261
REMARK  107  A    between atoms: _264  and  _266
REMARK  108  A    between atoms: _266  and  _267
REMARK  109  A    between atoms: _269  and  _271
REMARK  110  A    between atoms: _271  and  _272
REMARK  111  A    between atoms: _271  and  _274
REMARK  112  A    between atoms: _274  and  _275
REMARK  113  A    between atoms: _275  and  _276
REMARK  114  A    between atoms: _276  and  _277
REMARK  115  A    between atoms: _286  and  _288
REMARK  116  A    between atoms: _288  and  _289
REMARK  117  A    between atoms: _288  and  _291
REMARK  118  A    between atoms: _291  and  _292
REMARK  119  A    between atoms: _292  and  _293
REMARK  120  A    between atoms: _293  and  _294
REMARK  121  A    between atoms: _303  and  _305
REMARK  122  A    between atoms: _305  and  _306
REMARK  123  A    between atoms: _305  and  _308
REMARK  124  A    between atoms: _308  and  _309
REMARK  125  A    between atoms: _312  and  _314
REMARK  126  A    between atoms: _314  and  _315
REMARK  127  A    between atoms: _314  and  _317
REMARK  128  A    between atoms: _317  and  _318
REMARK  129  A    between atoms: _321  and  _323
REMARK  130  A    between atoms: _323  and  _324
REMARK  131  A    between atoms: _323  and  _326
REMARK  132  A    between atoms: _326  and  _327
REMARK  133  A    between atoms: _330  and  _332
REMARK  134  A    between atoms: _332  and  _333
REMARK  135  A    between atoms: _332  and  _335
REMARK  136  A    between atoms: _335  and  _336
REMARK  137  A    between atoms: _339  and  _341
REMARK  138  A    between atoms: _341  and  _342
REMARK  139  A    between atoms: _344  and  _346
REMARK  140  A    between atoms: _346  and  _347
REMARK  141  A    between atoms: _350  and  _352
REMARK  142  A    between atoms: _352  and  _353
REMARK  143  A    between atoms: _352  and  _355
REMARK  144  A    between atoms: _355  and  _356
REMARK  145  A    between atoms: _359  and  _361
REMARK  146  A    between atoms: _361  and  _362
REMARK  147  A    between atoms: _361  and  _364
REMARK  148  A    between atoms: _364  and  _365
REMARK  149  A    between atoms: _368  and  _370
REMARK  150  A    between atoms: _370  and  _371
REMARK  151  A    between atoms: _370  and  _373
REMARK  152  A    between atoms: _373  and  _374
REMARK  153  A    between atoms: _377  and  _379
REMARK  154  A    between atoms: _379  and  _380
REMARK  155  A    between atoms: _379  and  _382
REMARK  156  A    between atoms: _385  and  _387
REMARK  157  A    between atoms: _387  and  _388
REMARK  158  A    between atoms: _387  and  _390
REMARK  159  A    between atoms: _390  and  _391
REMARK  160  A    between atoms: _394  and  _396
REMARK  161  A    between atoms: _396  and  _397
REMARK  162  A    between atoms: _396  and  _399
REMARK  163  A    between atoms: _399  and  _400
REMARK  164  A    between atoms: _400  and  _401
REMARK  165  A    between atoms: _401  and  _402
REMARK  166  A    between atoms: _411  and  _413
REMARK  167  A    between atoms: _413  and  _414
REMARK  168  A    between atoms: _413  and  _416
REMARK  169  A    between atoms: _416  and  _417
REMARK  170  A    between atoms: _417  and  _418
REMARK  171  A    between atoms: _420  and  _422
REMARK  172  A    between atoms: _422  and  _423
REMARK  173  A    between atoms: _422  and  _425
REMARK  174  A    between atoms: _425  and  _426
REMARK  175  A    between atoms: _429  and  _431
REMARK  176  A    between atoms: _431  and  _432
REMARK  177  A    between atoms: _434  and  _436
REMARK  178  A    between atoms: _436  and  _437
REMARK  179  A    between atoms: _439  and  _441
REMARK  180  A    between atoms: _441  and  _442
REMARK  181  A    between atoms: _441  and  _444
REMARK  182  A    between atoms: _444  and  _445
REMARK  183  A    between atoms: _448  and  _450
REMARK  184  A    between atoms: _450  and  _451
REMARK  185  A    between atoms: _453  and  _455
REMARK  186  A    between atoms: _455  and  _456
REMARK  187  A    between atoms: _458  and  _460
REMARK  188  A    between atoms: _460  and  _461
REMARK  189  A    between atoms: _460  and  _463
REMARK  190  A    between atoms: _463  and  _464
REMARK  191  A    between atoms: _470  and  _472
REMARK  192  A    between atoms: _472  and  _473
REMARK  193  A    between atoms: _472  and  _475
REMARK  194  A    between atoms: _478  and  _480
REMARK  195  A    between atoms: _480  and  _481
REMARK  196  A    between atoms: _480  and  _483
REMARK  197  A    between atoms: _486  and  _488
REMARK  198  A    between atoms: _488  and  _489
REMARK  199  A    between atoms: _488  and  _491
REMARK  200  A    between atoms: _491  and  _492
REMARK  201  A    between atoms: _495  and  _497
REMARK  202  A    between atoms: _497  and  _498
REMARK  203  A    between atoms: _497  and  _500
REMARK  204  A    between atoms: _500  and  _501
REMARK  205  A    between atoms: _505  and  _506
REMARK  206  A    between atoms: _511  and  _513
REMARK  207  A    between atoms: _513  and  _514
REMARK  208  A    between atoms: _517  and  _519
REMARK  209  A    between atoms: _519  and  _520
REMARK  210  A    between atoms: _519  and  _522
REMARK  211  A    between atoms: _522  and  _523
REMARK  212  A    between atoms: _528  and  _530
REMARK  213  A    between atoms: _530  and  _531
REMARK  214  A    between atoms: _530  and  _533
REMARK  215  A    between atoms: _533  and  _534
REMARK  216  A    between atoms: _537  and  _539
REMARK  217  A    between atoms: _539  and  _540
REMARK  218  A    between atoms: _539  and  _542
REMARK  219  A    between atoms: _542  and  _543
REMARK  220  A    between atoms: _546  and  _548
REMARK  221  A    between atoms: _548  and  _549
REMARK  222  A    between atoms: _551  and  _553
REMARK  223  A    between atoms: _553  and  _554
REMARK  224  A    between atoms: _553  and  _556
REMARK  225  A    between atoms: _556  and  _557
REMARK  226  A    between atoms: _557  and  _558
REMARK  227  A    between atoms: _558  and  _559
REMARK  228  A    between atoms: _568  and  _570
REMARK  229  A    between atoms: _570  and  _571
REMARK  230  A    between atoms: _570  and  _573
REMARK  231  A    between atoms: _573  and  _574
REMARK                            x       y       z     vdW  Elec       q    Type
REMARK                         _______ _______ _______ _____ _____    ______ ____
ROOT
ATOM      1  O   HOH     1      17.539  -4.763 -12.027  0.00  0.00    +0.000 OA
ENDROOT
TORSDOF 0
REMARK  Name = ../refined-set-2016/2p3a/2p3a_pocket.pdb
REMARK  231 active torsions:
REMARK  status: ('A' for Active; 'I' for Inactive)
REMARK    1  A    between atoms: _1  and  _3
REMARK    2  A    between atoms: _3  and  _4
REMARK    3  A    between atoms: _3  and  _6
REMARK    4  A    between atoms: _6  and  _7
REMARK    5  A    between atoms: _7  and  _8
REMARK    6  A    between atoms: _8  and  _9
REMARK    7  A    between atoms: _18  and  _20
REMARK    8  A    between atoms: _20  and  _21
REMARK    9  A    between atoms: _20  and  _23
REMARK   10  A    between atoms: _23  and  _24
REMARK   11  A    between atoms: _27  and  _29
REMARK   12  A    between atoms: _29  and  _30
REMARK   13  A    between atoms: _29  and  _32
REMARK   14  A    between atoms: _32  and  _33
REMARK   15  A    between atoms: _36  and  _38
REMARK   16  A    between atoms: _38  and  _39
REMARK   17  A    between atoms: _38  and  _41
REMARK   18  A    between atoms: _41  and  _42
REMARK   19  A    between atoms: _45  and  _47
REMARK   20  A    between atoms: _47  and  _48
REMARK   21  A    between atoms: _47  and  _50
REMARK   22  A    between atoms: _50  and  _51
REMARK   23  A    between atoms: _54  and  _56
REMARK   24  A    between atoms: _56  and  _57
REMARK   25  A    between atoms: _59  and  _61
REMARK   26  A    between atoms: _61  and  _62
REMARK   27  A    between atoms: _65  and  _67
REMARK   28  A    between atoms: _67  and  _68
REMARK   29  A    between atoms: _67  and  _70
REMARK   30  A    between atoms: _70  and  _71
REMARK   31  A    between atoms: _74  and  _76
REMARK   32  A    between atoms: _76  and  _77
REMARK   33  A    between atoms: _76  and  _79
REMARK   34  A    between atoms: _79  and  _80
REMARK   35  A    between atoms: _83  and  _85
REMARK   36  A    between atoms: _85  and  _86
REMARK   37  A    between atoms: _85  and  _88
REMARK   38  A    between atoms: _88  and  _89
REMARK   39  A    between atoms: _92  and  _94
REMARK   40  A    between atoms: _94  and  _95
REMARK   41  A    between atoms: _94  and  _97
REMARK   42  A    between atoms: _100  and  _102
REMARK   43  A    between atoms: _102  and  _103
REMARK   44  A    between atoms: _102  and  _105
REMARK   45  A    between atoms: _105  and  _106
REMARK   46  A    between atoms: _106  and  _107
REMARK   47  A    between atoms: _107  and  _108
REMARK   48  A    between atoms: _117  and  _119
REMARK   49  A    between atoms: _119  and  _120
REMARK   50  A    between atoms: _119  and  _122
REMARK   51  A    between atoms: _122  and  _123
REMARK   52  A    between atoms: _123  and  _124
REMARK   53  A    between atoms: _126  and  _128
REMARK   54  A    between atoms: _128  and  _129
REMARK   55  A    between atoms: _128  and  _131
REMARK   56  A    between atoms: _131  and  _132
REMARK   57  A    between atoms: _135  and  _137
REMARK   58  A    between atoms: _137  and  _138
REMARK   59  A    between atoms: _140  and  _142
REMARK   60  A    between atoms: _142  and  _143
REMARK   61  A    between atoms: _145  and  _147
REMARK   62  A    between atoms: _147  and  _148
REMARK   63  A    between atoms: _147  and  _150
REMARK   64  A    between atoms: _150  and  _151
REMARK   65  A    between atoms: _154  and  _156
REMARK   66  A    between atoms: _156  and  _157
REMARK   67  A    between atoms: _159  and  _161
REMARK   68  A    between atoms: _161  and  _162
REMARK   69  A    between atoms: _164  and  _166
REMARK   70  A    between atoms: _166  and  _167
REMARK   71  A    between atoms: _166  and  _169
REMARK   72  A    between atoms: _169  and  _170
REMARK   73  A    between atoms: _176  and  _178
REMARK   74  A    between atoms: _178  and  _179
REMARK   75  A    between atoms: _178  and  _181
REMARK   76  A    between atoms: _184  and  _186
REMARK   77  A    between atoms: _186  and  _187
REMARK   78  A    between atoms: _186  and  _189
REMARK   79  A    between atoms: _192  and  _194
REMARK   80  A    between atoms: _194  and  _195
REMARK   81  A    between atoms: _194  and  _197
REMARK   82  A    between atoms: _197  and  _198
REMARK   83  A    between atoms: _198  and  _199
REMARK   84  A    between atoms: _204  and  _206
REMARK   85  A    between atoms: _206  and  _207
REMARK   86  A    between atoms: _206  and  _209
REMARK   87  A    between atoms: _209  and  _210
REMARK   88  A    between atoms: _213  and  _215
REMARK   89  A    between atoms: _215  and  _216
REMARK   90  A    between atoms: _215  and  _218
REMARK   91  A    between atoms: _218  and  _219
REMARK   92  A    between atoms: _223  and  _224
REMARK   93  A    between atoms: _229  and  _231
REMARK   94  A    between atoms: _231  and  _232
REMARK   95  A    between atoms: _235  and  _237
REMARK   96  A    between atoms: _237  and  _238
REMARK   97  A    between atoms: _237  and  _240
REMARK   98  A    between atoms: _240  and  _241
REMARK   99  A    between atoms: _246  and  _248
REMARK  100  A    between atoms: _248  and  _249
REMARK  101  A    between atoms: _248  and  _251
REMARK  102  A    between atoms: _251  and  _252
REMARK  103  A    between atoms: _255  and  _257
REMARK  104  A    between atoms: _257  and  _258
REMARK  105  A    between atoms: _257  and  _260
REMARK  106  A    between atoms: _260  and  _261
REMARK  107  A    between atoms: _264  and  _266
REMARK  108  A    between atoms: _266  and  _267
REMARK  109  A    between atoms: _269  and  _271
REMARK  110  A    between atoms: _271  and  _272
REMARK  111  A    between atoms: _271  and  _274
REMARK  112  A    between atoms: _274  and  _275
REMARK  113  A    between atoms: _275  and  _276
REMARK  114  A    between atoms: _276  and  _277
REMARK  115  A    between atoms: _286  and  _288
REMARK  116  A    between atoms: _288  and  _289
REMARK  117  A    between atoms: _288  and  _291
REMARK  118  A    between atoms: _291  and  _292
REMARK  119  A    between atoms: _292  and  _293
REMARK  120  A    between atoms: _293  and  _294
REMARK  121  A    between atoms: _303  and  _305
REMARK  122  A    between atoms: _305  and  _306
REMARK  123  A    between atoms: _305  and  _308
REMARK  124  A    between atoms: _308  and  _309
REMARK  125  A    between atoms: _312  and  _314
REMARK  126  A    between atoms: _314  and  _315
REMARK  127  A    between atoms: _314  and  _317
REMARK  128  A    between atoms: _317  and  _318
REMARK  129  A    between atoms: _321  and  _323
REMARK  130  A    between atoms: _323  and  _324
REMARK  131  A    between atoms: _323  and  _326
REMARK  132  A    between atoms: _326  and  _327
REMARK  133  A    between atoms: _330  and  _332
REMARK  134  A    between atoms: _332  and  _333
REMARK  135  A    between atoms: _332  and  _335
REMARK  136  A    between atoms: _335  and  _336
REMARK  137  A    between atoms: _339  and  _341
REMARK  138  A    between atoms: _341  and  _342
REMARK  139  A    between atoms: _344  and  _346
REMARK  140  A    between atoms: _346  and  _347
REMARK  141  A    between atoms: _350  and  _352
REMARK  142  A    between atoms: _352  and  _353
REMARK  143  A    between atoms: _352  and  _355
REMARK  144  A    between atoms: _355  and  _356
REMARK  145  A    between atoms: _359  and  _361
REMARK  146  A    between atoms: _361  and  _362
REMARK  147  A    between atoms: _361  and  _364
REMARK  148  A    between atoms: _364  and  _365
REMARK  149  A    between atoms: _368  and  _370
REMARK  150  A    between atoms: _370  and  _371
REMARK  151  A    between atoms: _370  and  _373
REMARK  152  A    between atoms: _373  and  _374
REMARK  153  A    between atoms: _377  and  _379
REMARK  154  A    between atoms: _379  and  _380
REMARK  155  A    between atoms: _379  and  _382
REMARK  156  A    between atoms: _385  and  _387
REMARK  157  A    between atoms: _387  and  _388
REMARK  158  A    between atoms: _387  and  _390
REMARK  159  A    between atoms: _390  and  _391
REMARK  160  A    between atoms: _394  and  _396
REMARK  161  A    between atoms: _396  and  _397
REMARK  162  A    between atoms: _396  and  _399
REMARK  163  A    between atoms: _399  and  _400
REMARK  164  A    between atoms: _400  and  _401
REMARK  165  A    between atoms: _401  and  _402
REMARK  166  A    between atoms: _411  and  _413
REMARK  167  A    between atoms: _413  and  _414
REMARK  168  A    between atoms: _413  and  _416
REMARK  169  A    between atoms: _416  and  _417
REMARK  170  A    between atoms: _417  and  _418
REMARK  171  A    between atoms: _420  and  _422
REMARK  172  A    between atoms: _422  and  _423
REMARK  173  A    between atoms: _422  and  _425
REMARK  174  A    between atoms: _425  and  _426
REMARK  175  A    between atoms: _429  and  _431
REMARK  176  A    between atoms: _431  and  _432
REMARK  177  A    between atoms: _434  and  _436
REMARK  178  A    between atoms: _436  and  _437
REMARK  179  A    between atoms: _439  and  _441
REMARK  180  A    between atoms: _441  and  _442
REMARK  181  A    between atoms: _441  and  _444
REMARK  182  A    between atoms: _444  and  _445
REMARK  183  A    between atoms: _448  and  _450
REMARK  184  A    between atoms: _450  and  _451
REMARK  185  A    between atoms: _453  and  _455
REMARK  186  A    between atoms: _455  and  _456
REMARK  187  A    between atoms: _458  and  _460
REMARK  188  A    between atoms: _460  and  _461
REMARK  189  A    between atoms: _460  and  _463
REMARK  190  A    between atoms: _463  and  _464
REMARK  191  A    between atoms: _470  and  _472
REMARK  192  A    between atoms: _472  and  _473
REMARK  193  A    between atoms: _472  and  _475
REMARK  194  A    between atoms: _478  and  _480
REMARK  195  A    between atoms: _480  and  _481
REMARK  196  A    between atoms: _480  and  _483
REMARK  197  A    between atoms: _486  and  _488
REMARK  198  A    between atoms: _488  and  _489
REMARK  199  A    between atoms: _488  and  _491
REMARK  200  A    between atoms: _491  and  _492
REMARK  201  A    between atoms: _495  and  _497
REMARK  202  A    between atoms: _497  and  _498
REMARK  203  A    between atoms: _497  and  _500
REMARK  204  A    between atoms: _500  and  _501
REMARK  205  A    between atoms: _505  and  _506
REMARK  206  A    between atoms: _511  and  _513
REMARK  207  A    between atoms: _513  and  _514
REMARK  208  A    between atoms: _517  and  _519
REMARK  209  A    between atoms: _519  and  _520
REMARK  210  A    between atoms: _519  and  _522
REMARK  211  A    between atoms: _522  and  _523
REMARK  212  A    between atoms: _528  and  _530
REMARK  213  A    between atoms: _530  and  _531
REMARK  214  A    between atoms: _530  and  _533
REMARK  215  A    between atoms: _533  and  _534
REMARK  216  A    between atoms: _537  and  _539
REMARK  217  A    between atoms: _539  and  _540
REMARK  218  A    between atoms: _539  and  _542
REMARK  219  A    between atoms: _542  and  _543
REMARK  220  A    between atoms: _546  and  _548
REMARK  221  A    between atoms: _548  and  _549
REMARK  222  A    between atoms: _551  and  _553
REMARK  223  A    between atoms: _553  and  _554
REMARK  224  A    between atoms: _553  and  _556
REMARK  225  A    between atoms: _556  and  _557
REMARK  226  A    between atoms: _557  and  _558
REMARK  227  A    between atoms: _558  and  _559
REMARK  228  A    between atoms: _568  and  _570
REMARK  229  A    between atoms: _570  and  _571
REMARK  230  A    between atoms: _570  and  _573
REMARK  231  A    between atoms: _573  and  _574
REMARK                            x       y       z     vdW  Elec       q    Type
REMARK                         _______ _______ _______ _____ _____    ______ ____
ROOT
ATOM      1  O   HOH     1      20.348  12.197  -0.064  0.00  0.00    +0.000 OA
ENDROOT
TORSDOF 0
REMARK  Name = ../refined-set-2016/2p3a/2p3a_pocket.pdb
REMARK  231 active torsions:
REMARK  status: ('A' for Active; 'I' for Inactive)
REMARK    1  A    between atoms: _1  and  _3
REMARK    2  A    between atoms: _3  and  _4
REMARK    3  A    between atoms: _3  and  _6
REMARK    4  A    between atoms: _6  and  _7
REMARK    5  A    between atoms: _7  and  _8
REMARK    6  A    between atoms: _8  and  _9
REMARK    7  A    between atoms: _18  and  _20
REMARK    8  A    between atoms: _20  and  _21
REMARK    9  A    between atoms: _20  and  _23
REMARK   10  A    between atoms: _23  and  _24
REMARK   11  A    between atoms: _27  and  _29
REMARK   12  A    between atoms: _29  and  _30
REMARK   13  A    between atoms: _29  and  _32
REMARK   14  A    between atoms: _32  and  _33
REMARK   15  A    between atoms: _36  and  _38
REMARK   16  A    between atoms: _38  and  _39
REMARK   17  A    between atoms: _38  and  _41
REMARK   18  A    between atoms: _41  and  _42
REMARK   19  A    between atoms: _45  and  _47
REMARK   20  A    between atoms: _47  and  _48
REMARK   21  A    between atoms: _47  and  _50
REMARK   22  A    between atoms: _50  and  _51
REMARK   23  A    between atoms: _54  and  _56
REMARK   24  A    between atoms: _56  and  _57
REMARK   25  A    between atoms: _59  and  _61
REMARK   26  A    between atoms: _61  and  _62
REMARK   27  A    between atoms: _65  and  _67
REMARK   28  A    between atoms: _67  and  _68
REMARK   29  A    between atoms: _67  and  _70
REMARK   30  A    between atoms: _70  and  _71
REMARK   31  A    between atoms: _74  and  _76
REMARK   32  A    between atoms: _76  and  _77
REMARK   33  A    between atoms: _76  and  _79
REMARK   34  A    between atoms: _79  and  _80
REMARK   35  A    between atoms: _83  and  _85
REMARK   36  A    between atoms: _85  and  _86
REMARK   37  A    between atoms: _85  and  _88
REMARK   38  A    between atoms: _88  and  _89
REMARK   39  A    between atoms: _92  and  _94
REMARK   40  A    between atoms: _94  and  _95
REMARK   41  A    between atoms: _94  and  _97
REMARK   42  A    between atoms: _100  and  _102
REMARK   43  A    between atoms: _102  and  _103
REMARK   44  A    between atoms: _102  and  _105
REMARK   45  A    between atoms: _105  and  _106
REMARK   46  A    between atoms: _106  and  _107
REMARK   47  A    between atoms: _107  and  _108
REMARK   48  A    between atoms: _117  and  _119
REMARK   49  A    between atoms: _119  and  _120
REMARK   50  A    between atoms: _119  and  _122
REMARK   51  A    between atoms: _122  and  _123
REMARK   52  A    between atoms: _123  and  _124
REMARK   53  A    between atoms: _126  and  _128
REMARK   54  A    between atoms: _128  and  _129
REMARK   55  A    between atoms: _128  and  _131
REMARK   56  A    between atoms: _131  and  _132
REMARK   57  A    between atoms: _135  and  _137
REMARK   58  A    between atoms: _137  and  _138
REMARK   59  A    between atoms: _140  and  _142
REMARK   60  A    between atoms: _142  and  _143
REMARK   61  A    between atoms: _145  and  _147
REMARK   62  A    between atoms: _147  and  _148
REMARK   63  A    between atoms: _147  and  _150
REMARK   64  A    between atoms: _150  and  _151
REMARK   65  A    between atoms: _154  and  _156
REMARK   66  A    between atoms: _156  and  _157
REMARK   67  A    between atoms: _159  and  _161
REMARK   68  A    between atoms: _161  and  _162
REMARK   69  A    between atoms: _164  and  _166
REMARK   70  A    between atoms: _166  and  _167
REMARK   71  A    between atoms: _166  and  _169
REMARK   72  A    between atoms: _169  and  _170
REMARK   73  A    between atoms: _176  and  _178
REMARK   74  A    between atoms: _178  and  _179
REMARK   75  A    between atoms: _178  and  _181
REMARK   76  A    between atoms: _184  and  _186
REMARK   77  A    between atoms: _186  and  _187
REMARK   78  A    between atoms: _186  and  _189
REMARK   79  A    between atoms: _192  and  _194
REMARK   80  A    between atoms: _194  and  _195
REMARK   81  A    between atoms: _194  and  _197
REMARK   82  A    between atoms: _197  and  _198
REMARK   83  A    between atoms: _198  and  _199
REMARK   84  A    between atoms: _204  and  _206
REMARK   85  A    between atoms: _206  and  _207
REMARK   86  A    between atoms: _206  and  _209
REMARK   87  A    between atoms: _209  and  _210
REMARK   88  A    between atoms: _213  and  _215
REMARK   89  A    between atoms: _215  and  _216
REMARK   90  A    between atoms: _215  and  _218
REMARK   91  A    between atoms: _218  and  _219
REMARK   92  A    between atoms: _223  and  _224
REMARK   93  A    between atoms: _229  and  _231
REMARK   94  A    between atoms: _231  and  _232
REMARK   95  A    between atoms: _235  and  _237
REMARK   96  A    between atoms: _237  and  _238
REMARK   97  A    between atoms: _237  and  _240
REMARK   98  A    between atoms: _240  and  _241
REMARK   99  A    between atoms: _246  and  _248
REMARK  100  A    between atoms: _248  and  _249
REMARK  101  A    between atoms: _248  and  _251
REMARK  102  A    between atoms: _251  and  _252
REMARK  103  A    between atoms: _255  and  _257
REMARK  104  A    between atoms: _257  and  _258
REMARK  105  A    between atoms: _257  and  _260
REMARK  106  A    between atoms: _260  and  _261
REMARK  107  A    between atoms: _264  and  _266
REMARK  108  A    between atoms: _266  and  _267
REMARK  109  A    between atoms: _269  and  _271
REMARK  110  A    between atoms: _271  and  _272
REMARK  111  A    between atoms: _271  and  _274
REMARK  112  A    between atoms: _274  and  _275
REMARK  113  A    between atoms: _275  and  _276
REMARK  114  A    between atoms: _276  and  _277
REMARK  115  A    between atoms: _286  and  _288
REMARK  116  A    between atoms: _288  and  _289
REMARK  117  A    between atoms: _288  and  _291
REMARK  118  A    between atoms: _291  and  _292
REMARK  119  A    between atoms: _292  and  _293
REMARK  120  A    between atoms: _293  and  _294
REMARK  121  A    between atoms: _303  and  _305
REMARK  122  A    between atoms: _305  and  _306
REMARK  123  A    between atoms: _305  and  _308
REMARK  124  A    between atoms: _308  and  _309
REMARK  125  A    between atoms: _312  and  _314
REMARK  126  A    between atoms: _314  and  _315
REMARK  127  A    between atoms: _314  and  _317
REMARK  128  A    between atoms: _317  and  _318
REMARK  129  A    between atoms: _321  and  _323
REMARK  130  A    between atoms: _323  and  _324
REMARK  131  A    between atoms: _323  and  _326
REMARK  132  A    between atoms: _326  and  _327
REMARK  133  A    between atoms: _330  and  _332
REMARK  134  A    between atoms: _332  and  _333
REMARK  135  A    between atoms: _332  and  _335
REMARK  136  A    between atoms: _335  and  _336
REMARK  137  A    between atoms: _339  and  _341
REMARK  138  A    between atoms: _341  and  _342
REMARK  139  A    between atoms: _344  and  _346
REMARK  140  A    between atoms: _346  and  _347
REMARK  141  A    between atoms: _350  and  _352
REMARK  142  A    between atoms: _352  and  _353
REMARK  143  A    between atoms: _352  and  _355
REMARK  144  A    between atoms: _355  and  _356
REMARK  145  A    between atoms: _359  and  _361
REMARK  146  A    between atoms: _361  and  _362
REMARK  147  A    between atoms: _361  and  _364
REMARK  148  A    between atoms: _364  and  _365
REMARK  149  A    between atoms: _368  and  _370
REMARK  150  A    between atoms: _370  and  _371
REMARK  151  A    between atoms: _370  and  _373
REMARK  152  A    between atoms: _373  and  _374
REMARK  153  A    between atoms: _377  and  _379
REMARK  154  A    between atoms: _379  and  _380
REMARK  155  A    between atoms: _379  and  _382
REMARK  156  A    between atoms: _385  and  _387
REMARK  157  A    between atoms: _387  and  _388
REMARK  158  A    between atoms: _387  and  _390
REMARK  159  A    between atoms: _390  and  _391
REMARK  160  A    between atoms: _394  and  _396
REMARK  161  A    between atoms: _396  and  _397
REMARK  162  A    between atoms: _396  and  _399
REMARK  163  A    between atoms: _399  and  _400
REMARK  164  A    between atoms: _400  and  _401
REMARK  165  A    between atoms: _401  and  _402
REMARK  166  A    between atoms: _411  and  _413
REMARK  167  A    between atoms: _413  and  _414
REMARK  168  A    between atoms: _413  and  _416
REMARK  169  A    between atoms: _416  and  _417
REMARK  170  A    between atoms: _417  and  _418
REMARK  171  A    between atoms: _420  and  _422
REMARK  172  A    between atoms: _422  and  _423
REMARK  173  A    between atoms: _422  and  _425
REMARK  174  A    between atoms: _425  and  _426
REMARK  175  A    between atoms: _429  and  _431
REMARK  176  A    between atoms: _431  and  _432
REMARK  177  A    between atoms: _434  and  _436
REMARK  178  A    between atoms: _436  and  _437
REMARK  179  A    between atoms: _439  and  _441
REMARK  180  A    between atoms: _441  and  _442
REMARK  181  A    between atoms: _441  and  _444
REMARK  182  A    between atoms: _444  and  _445
REMARK  183  A    between atoms: _448  and  _450
REMARK  184  A    between atoms: _450  and  _451
REMARK  185  A    between atoms: _453  and  _455
REMARK  186  A    between atoms: _455  and  _456
REMARK  187  A    between atoms: _458  and  _460
REMARK  188  A    between atoms: _460  and  _461
REMARK  189  A    between atoms: _460  and  _463
REMARK  190  A    between atoms: _463  and  _464
REMARK  191  A    between atoms: _470  and  _472
REMARK  192  A    between atoms: _472  and  _473
REMARK  193  A    between atoms: _472  and  _475
REMARK  194  A    between atoms: _478  and  _480
REMARK  195  A    between atoms: _480  and  _481
REMARK  196  A    between atoms: _480  and  _483
REMARK  197  A    between atoms: _486  and  _488
REMARK  198  A    between atoms: _488  and  _489
REMARK  199  A    between atoms: _488  and  _491
REMARK  200  A    between atoms: _491  and  _492
REMARK  201  A    between atoms: _495  and  _497
REMARK  202  A    between atoms: _497  and  _498
REMARK  203  A    between atoms: _497  and  _500
REMARK  204  A    between atoms: _500  and  _501
REMARK  205  A    between atoms: _505  and  _506
REMARK  206  A    between atoms: _511  and  _513
REMARK  207  A    between atoms: _513  and  _514
REMARK  208  A    between atoms: _517  and  _519
REMARK  209  A    between atoms: _519  and  _520
REMARK  210  A    between atoms: _519  and  _522
REMARK  211  A    between atoms: _522  and  _523
REMARK  212  A    between atoms: _528  and  _530
REMARK  213  A    between atoms: _530  and  _531
REMARK  214  A    between atoms: _530  and  _533
REMARK  215  A    between atoms: _533  and  _534
REMARK  216  A    between atoms: _537  and  _539
REMARK  217  A    between atoms: _539  and  _540
REMARK  218  A    between atoms: _539  and  _542
REMARK  219  A    between atoms: _542  and  _543
REMARK  220  A    between atoms: _546  and  _548
REMARK  221  A    between atoms: _548  and  _549
REMARK  222  A    between atoms: _551  and  _553
REMARK  223  A    between atoms: _553  and  _554
REMARK  224  A    between atoms: _553  and  _556
REMARK  225  A    between atoms: _556  and  _557
REMARK  226  A    between atoms: _557  and  _558
REMARK  227  A    between atoms: _558  and  _559
REMARK  228  A    between atoms: _568  and  _570
REMARK  229  A    between atoms: _570  and  _571
REMARK  230  A    between atoms: _570  and  _573
REMARK  231  A    between atoms: _573  and  _574
REMARK                            x       y       z     vdW  Elec       q    Type
REMARK                         _______ _______ _______ _____ _____    ______ ____
ROOT
ATOM      1  O   HOH     1      17.395   9.280   4.768  0.00  0.00    +0.000 OA
ENDROOT
TORSDOF 0
REMARK  Name = ../refined-set-2016/2p3a/2p3a_pocket.pdb
REMARK  231 active torsions:
REMARK  status: ('A' for Active; 'I' for Inactive)
REMARK    1  A    between atoms: _1  and  _3
REMARK    2  A    between atoms: _3  and  _4
REMARK    3  A    between atoms: _3  and  _6
REMARK    4  A    between atoms: _6  and  _7
REMARK    5  A    between atoms: _7  and  _8
REMARK    6  A    between atoms: _8  and  _9
REMARK    7  A    between atoms: _18  and  _20
REMARK    8  A    between atoms: _20  and  _21
REMARK    9  A    between atoms: _20  and  _23
REMARK   10  A    between atoms: _23  and  _24
REMARK   11  A    between atoms: _27  and  _29
REMARK   12  A    between atoms: _29  and  _30
REMARK   13  A    between atoms: _29  and  _32
REMARK   14  A    between atoms: _32  and  _33
REMARK   15  A    between atoms: _36  and  _38
REMARK   16  A    between atoms: _38  and  _39
REMARK   17  A    between atoms: _38  and  _41
REMARK   18  A    between atoms: _41  and  _42
REMARK   19  A    between atoms: _45  and  _47
REMARK   20  A    between atoms: _47  and  _48
REMARK   21  A    between atoms: _47  and  _50
REMARK   22  A    between atoms: _50  and  _51
REMARK   23  A    between atoms: _54  and  _56
REMARK   24  A    between atoms: _56  and  _57
REMARK   25  A    between atoms: _59  and  _61
REMARK   26  A    between atoms: _61  and  _62
REMARK   27  A    between atoms: _65  and  _67
REMARK   28  A    between atoms: _67  and  _68
REMARK   29  A    between atoms: _67  and  _70
REMARK   30  A    between atoms: _70  and  _71
REMARK   31  A    between atoms: _74  and  _76
REMARK   32  A    between atoms: _76  and  _77
REMARK   33  A    between atoms: _76  and  _79
REMARK   34  A    between atoms: _79  and  _80
REMARK   35  A    between atoms: _83  and  _85
REMARK   36  A    between atoms: _85  and  _86
REMARK   37  A    between atoms: _85  and  _88
REMARK   38  A    between atoms: _88  and  _89
REMARK   39  A    between atoms: _92  and  _94
REMARK   40  A    between atoms: _94  and  _95
REMARK   41  A    between atoms: _94  and  _97
REMARK   42  A    between atoms: _100  and  _102
REMARK   43  A    between atoms: _102  and  _103
REMARK   44  A    between atoms: _102  and  _105
REMARK   45  A    between atoms: _105  and  _106
REMARK   46  A    between atoms: _106  and  _107
REMARK   47  A    between atoms: _107  and  _108
REMARK   48  A    between atoms: _117  and  _119
REMARK   49  A    between atoms: _119  and  _120
REMARK   50  A    between atoms: _119  and  _122
REMARK   51  A    between atoms: _122  and  _123
REMARK   52  A    between atoms: _123  and  _124
REMARK   53  A    between atoms: _126  and  _128
REMARK   54  A    between atoms: _128  and  _129
REMARK   55  A    between atoms: _128  and  _131
REMARK   56  A    between atoms: _131  and  _132
REMARK   57  A    between atoms: _135  and  _137
REMARK   58  A    between atoms: _137  and  _138
REMARK   59  A    between atoms: _140  and  _142
REMARK   60  A    between atoms: _142  and  _143
REMARK   61  A    between atoms: _145  and  _147
REMARK   62  A    between atoms: _147  and  _148
REMARK   63  A    between atoms: _147  and  _150
REMARK   64  A    between atoms: _150  and  _151
REMARK   65  A    between atoms: _154  and  _156
REMARK   66  A    between atoms: _156  and  _157
REMARK   67  A    between atoms: _159  and  _161
REMARK   68  A    between atoms: _161  and  _162
REMARK   69  A    between atoms: _164  and  _166
REMARK   70  A    between atoms: _166  and  _167
REMARK   71  A    between atoms: _166  and  _169
REMARK   72  A    between atoms: _169  and  _170
REMARK   73  A    between atoms: _176  and  _178
REMARK   74  A    between atoms: _178  and  _179
REMARK   75  A    between atoms: _178  and  _181
REMARK   76  A    between atoms: _184  and  _186
REMARK   77  A    between atoms: _186  and  _187
REMARK   78  A    between atoms: _186  and  _189
REMARK   79  A    between atoms: _192  and  _194
REMARK   80  A    between atoms: _194  and  _195
REMARK   81  A    between atoms: _194  and  _197
REMARK   82  A    between atoms: _197  and  _198
REMARK   83  A    between atoms: _198  and  _199
REMARK   84  A    between atoms: _204  and  _206
REMARK   85  A    between atoms: _206  and  _207
REMARK   86  A    between atoms: _206  and  _209
REMARK   87  A    between atoms: _209  and  _210
REMARK   88  A    between atoms: _213  and  _215
REMARK   89  A    between atoms: _215  and  _216
REMARK   90  A    between atoms: _215  and  _218
REMARK   91  A    between atoms: _218  and  _219
REMARK   92  A    between atoms: _223  and  _224
REMARK   93  A    between atoms: _229  and  _231
REMARK   94  A    between atoms: _231  and  _232
REMARK   95  A    between atoms: _235  and  _237
REMARK   96  A    between atoms: _237  and  _238
REMARK   97  A    between atoms: _237  and  _240
REMARK   98  A    between atoms: _240  and  _241
REMARK   99  A    between atoms: _246  and  _248
REMARK  100  A    between atoms: _248  and  _249
REMARK  101  A    between atoms: _248  and  _251
REMARK  102  A    between atoms: _251  and  _252
REMARK  103  A    between atoms: _255  and  _257
REMARK  104  A    between atoms: _257  and  _258
REMARK  105  A    between atoms: _257  and  _260
REMARK  106  A    between atoms: _260  and  _261
REMARK  107  A    between atoms: _264  and  _266
REMARK  108  A    between atoms: _266  and  _267
REMARK  109  A    between atoms: _269  and  _271
REMARK  110  A    between atoms: _271  and  _272
REMARK  111  A    between atoms: _271  and  _274
REMARK  112  A    between atoms: _274  and  _275
REMARK  113  A    between atoms: _275  and  _276
REMARK  114  A    between atoms: _276  and  _277
REMARK  115  A    between atoms: _286  and  _288
REMARK  116  A    between atoms: _288  and  _289
REMARK  117  A    between atoms: _288  and  _291
REMARK  118  A    between atoms: _291  and  _292
REMARK  119  A    between atoms: _292  and  _293
REMARK  120  A    between atoms: _293  and  _294
REMARK  121  A    between atoms: _303  and  _305
REMARK  122  A    between atoms: _305  and  _306
REMARK  123  A    between atoms: _305  and  _308
REMARK  124  A    between atoms: _308  and  _309
REMARK  125  A    between atoms: _312  and  _314
REMARK  126  A    between atoms: _314  and  _315
REMARK  127  A    between atoms: _314  and  _317
REMARK  128  A    between atoms: _317  and  _318
REMARK  129  A    between atoms: _321  and  _323
REMARK  130  A    between atoms: _323  and  _324
REMARK  131  A    between atoms: _323  and  _326
REMARK  132  A    between atoms: _326  and  _327
REMARK  133  A    between atoms: _330  and  _332
REMARK  134  A    between atoms: _332  and  _333
REMARK  135  A    between atoms: _332  and  _335
REMARK  136  A    between atoms: _335  and  _336
REMARK  137  A    between atoms: _339  and  _341
REMARK  138  A    between atoms: _341  and  _342
REMARK  139  A    between atoms: _344  and  _346
REMARK  140  A    between atoms: _346  and  _347
REMARK  141  A    between atoms: _350  and  _352
REMARK  142  A    between atoms: _352  and  _353
REMARK  143  A    between atoms: _352  and  _355
REMARK  144  A    between atoms: _355  and  _356
REMARK  145  A    between atoms: _359  and  _361
REMARK  146  A    between atoms: _361  and  _362
REMARK  147  A    between atoms: _361  and  _364
REMARK  148  A    between atoms: _364  and  _365
REMARK  149  A    between atoms: _368  and  _370
REMARK  150  A    between atoms: _370  and  _371
REMARK  151  A    between atoms: _370  and  _373
REMARK  152  A    between atoms: _373  and  _374
REMARK  153  A    between atoms: _377  and  _379
REMARK  154  A    between atoms: _379  and  _380
REMARK  155  A    between atoms: _379  and  _382
REMARK  156  A    between atoms: _385  and  _387
REMARK  157  A    between atoms: _387  and  _388
REMARK  158  A    between atoms: _387  and  _390
REMARK  159  A    between atoms: _390  and  _391
REMARK  160  A    between atoms: _394  and  _396
REMARK  161  A    between atoms: _396  and  _397
REMARK  162  A    between atoms: _396  and  _399
REMARK  163  A    between atoms: _399  and  _400
REMARK  164  A    between atoms: _400  and  _401
REMARK  165  A    between atoms: _401  and  _402
REMARK  166  A    between atoms: _411  and  _413
REMARK  167  A    between atoms: _413  and  _414
REMARK  168  A    between atoms: _413  and  _416
REMARK  169  A    between atoms: _416  and  _417
REMARK  170  A    between atoms: _417  and  _418
REMARK  171  A    between atoms: _420  and  _422
REMARK  172  A    between atoms: _422  and  _423
REMARK  173  A    between atoms: _422  and  _425
REMARK  174  A    between atoms: _425  and  _426
REMARK  175  A    between atoms: _429  and  _431
REMARK  176  A    between atoms: _431  and  _432
REMARK  177  A    between atoms: _434  and  _436
REMARK  178  A    between atoms: _436  and  _437
REMARK  179  A    between atoms: _439  and  _441
REMARK  180  A    between atoms: _441  and  _442
REMARK  181  A    between atoms: _441  and  _444
REMARK  182  A    between atoms: _444  and  _445
REMARK  183  A    between atoms: _448  and  _450
REMARK  184  A    between atoms: _450  and  _451
REMARK  185  A    between atoms: _453  and  _455
REMARK  186  A    between atoms: _455  and  _456
REMARK  187  A    between atoms: _458  and  _460
REMARK  188  A    between atoms: _460  and  _461
REMARK  189  A    between atoms: _460  and  _463
REMARK  190  A    between atoms: _463  and  _464
REMARK  191  A    between atoms: _470  and  _472
REMARK  192  A    between atoms: _472  and  _473
REMARK  193  A    between atoms: _472  and  _475
REMARK  194  A    between atoms: _478  and  _480
REMARK  195  A    between atoms: _480  and  _481
REMARK  196  A    between atoms: _480  and  _483
REMARK  197  A    between atoms: _486  and  _488
REMARK  198  A    between atoms: _488  and  _489
REMARK  199  A    between atoms: _488  and  _491
REMARK  200  A    between atoms: _491  and  _492
REMARK  201  A    between atoms: _495  and  _497
REMARK  202  A    between atoms: _497  and  _498
REMARK  203  A    between atoms: _497  and  _500
REMARK  204  A    between atoms: _500  and  _501
REMARK  205  A    between atoms: _505  and  _506
REMARK  206  A    between atoms: _511  and  _513
REMARK  207  A    between atoms: _513  and  _514
REMARK  208  A    between atoms: _517  and  _519
REMARK  209  A    between atoms: _519  and  _520
REMARK  210  A    between atoms: _519  and  _522
REMARK  211  A    between atoms: _522  and  _523
REMARK  212  A    between atoms: _528  and  _530
REMARK  213  A    between atoms: _530  and  _531
REMARK  214  A    between atoms: _530  and  _533
REMARK  215  A    between atoms: _533  and  _534
REMARK  216  A    between atoms: _537  and  _539
REMARK  217  A    between atoms: _539  and  _540
REMARK  218  A    between atoms: _539  and  _542
REMARK  219  A    between atoms: _542  and  _543
REMARK  220  A    between atoms: _546  and  _548
REMARK  221  A    between atoms: _548  and  _549
REMARK  222  A    between atoms: _551  and  _553
REMARK  223  A    between atoms: _553  and  _554
REMARK  224  A    between atoms: _553  and  _556
REMARK  225  A    between atoms: _556  and  _557
REMARK  226  A    between atoms: _557  and  _558
REMARK  227  A    between atoms: _558  and  _559
REMARK  228  A    between atoms: _568  and  _570
REMARK  229  A    between atoms: _570  and  _571
REMARK  230  A    between atoms: _570  and  _573
REMARK  231  A    between atoms: _573  and  _574
REMARK                            x       y       z     vdW  Elec       q    Type
REMARK                         _______ _______ _______ _____ _____    ______ ____
ROOT
ATOM      1  O   HOH     1      21.094  -4.557 -12.480  0.00  0.00    +0.000 OA
ENDROOT
TORSDOF 0
REMARK  Name = ../refined-set-2016/2p3a/2p3a_pocket.pdb
REMARK  231 active torsions:
REMARK  status: ('A' for Active; 'I' for Inactive)
REMARK    1  A    between atoms: _1  and  _3
REMARK    2  A    between atoms: _3  and  _4
REMARK    3  A    between atoms: _3  and  _6
REMARK    4  A    between atoms: _6  and  _7
REMARK    5  A    between atoms: _7  and  _8
REMARK    6  A    between atoms: _8  and  _9
REMARK    7  A    between atoms: _18  and  _20
REMARK    8  A    between atoms: _20  and  _21
REMARK    9  A    between atoms: _20  and  _23
REMARK   10  A    between atoms: _23  and  _24
REMARK   11  A    between atoms: _27  and  _29
REMARK   12  A    between atoms: _29  and  _30
REMARK   13  A    between atoms: _29  and  _32
REMARK   14  A    between atoms: _32  and  _33
REMARK   15  A    between atoms: _36  and  _38
REMARK   16  A    between atoms: _38  and  _39
REMARK   17  A    between atoms: _38  and  _41
REMARK   18  A    between atoms: _41  and  _42
REMARK   19  A    between atoms: _45  and  _47
REMARK   20  A    between atoms: _47  and  _48
REMARK   21  A    between atoms: _47  and  _50
REMARK   22  A    between atoms: _50  and  _51
REMARK   23  A    between atoms: _54  and  _56
REMARK   24  A    between atoms: _56  and  _57
REMARK   25  A    between atoms: _59  and  _61
REMARK   26  A    between atoms: _61  and  _62
REMARK   27  A    between atoms: _65  and  _67
REMARK   28  A    between atoms: _67  and  _68
REMARK   29  A    between atoms: _67  and  _70
REMARK   30  A    between atoms: _70  and  _71
REMARK   31  A    between atoms: _74  and  _76
REMARK   32  A    between atoms: _76  and  _77
REMARK   33  A    between atoms: _76  and  _79
REMARK   34  A    between atoms: _79  and  _80
REMARK   35  A    between atoms: _83  and  _85
REMARK   36  A    between atoms: _85  and  _86
REMARK   37  A    between atoms: _85  and  _88
REMARK   38  A    between atoms: _88  and  _89
REMARK   39  A    between atoms: _92  and  _94
REMARK   40  A    between atoms: _94  and  _95
REMARK   41  A    between atoms: _94  and  _97
REMARK   42  A    between atoms: _100  and  _102
REMARK   43  A    between atoms: _102  and  _103
REMARK   44  A    between atoms: _102  and  _105
REMARK   45  A    between atoms: _105  and  _106
REMARK   46  A    between atoms: _106  and  _107
REMARK   47  A    between atoms: _107  and  _108
REMARK   48  A    between atoms: _117  and  _119
REMARK   49  A    between atoms: _119  and  _120
REMARK   50  A    between atoms: _119  and  _122
REMARK   51  A    between atoms: _122  and  _123
REMARK   52  A    between atoms: _123  and  _124
REMARK   53  A    between atoms: _126  and  _128
REMARK   54  A    between atoms: _128  and  _129
REMARK   55  A    between atoms: _128  and  _131
REMARK   56  A    between atoms: _131  and  _132
REMARK   57  A    between atoms: _135  and  _137
REMARK   58  A    between atoms: _137  and  _138
REMARK   59  A    between atoms: _140  and  _142
REMARK   60  A    between atoms: _142  and  _143
REMARK   61  A    between atoms: _145  and  _147
REMARK   62  A    between atoms: _147  and  _148
REMARK   63  A    between atoms: _147  and  _150
REMARK   64  A    between atoms: _150  and  _151
REMARK   65  A    between atoms: _154  and  _156
REMARK   66  A    between atoms: _156  and  _157
REMARK   67  A    between atoms: _159  and  _161
REMARK   68  A    between atoms: _161  and  _162
REMARK   69  A    between atoms: _164  and  _166
REMARK   70  A    between atoms: _166  and  _167
REMARK   71  A    between atoms: _166  and  _169
REMARK   72  A    between atoms: _169  and  _170
REMARK   73  A    between atoms: _176  and  _178
REMARK   74  A    between atoms: _178  and  _179
REMARK   75  A    between atoms: _178  and  _181
REMARK   76  A    between atoms: _184  and  _186
REMARK   77  A    between atoms: _186  and  _187
REMARK   78  A    between atoms: _186  and  _189
REMARK   79  A    between atoms: _192  and  _194
REMARK   80  A    between atoms: _194  and  _195
REMARK   81  A    between atoms: _194  and  _197
REMARK   82  A    between atoms: _197  and  _198
REMARK   83  A    between atoms: _198  and  _199
REMARK   84  A    between atoms: _204  and  _206
REMARK   85  A    between atoms: _206  and  _207
REMARK   86  A    between atoms: _206  and  _209
REMARK   87  A    between atoms: _209  and  _210
REMARK   88  A    between atoms: _213  and  _215
REMARK   89  A    between atoms: _215  and  _216
REMARK   90  A    between atoms: _215  and  _218
REMARK   91  A    between atoms: _218  and  _219
REMARK   92  A    between atoms: _223  and  _224
REMARK   93  A    between atoms: _229  and  _231
REMARK   94  A    between atoms: _231  and  _232
REMARK   95  A    between atoms: _235  and  _237
REMARK   96  A    between atoms: _237  and  _238
REMARK   97  A    between atoms: _237  and  _240
REMARK   98  A    between atoms: _240  and  _241
REMARK   99  A    between atoms: _246  and  _248
REMARK  100  A    between atoms: _248  and  _249
REMARK  101  A    between atoms: _248  and  _251
REMARK  102  A    between atoms: _251  and  _252
REMARK  103  A    between atoms: _255  and  _257
REMARK  104  A    between atoms: _257  and  _258
REMARK  105  A    between atoms: _257  and  _260
REMARK  106  A    between atoms: _260  and  _261
REMARK  107  A    between atoms: _264  and  _266
REMARK  108  A    between atoms: _266  and  _267
REMARK  109  A    between atoms: _269  and  _271
REMARK  110  A    between atoms: _271  and  _272
REMARK  111  A    between atoms: _271  and  _274
REMARK  112  A    between atoms: _274  and  _275
REMARK  113  A    between atoms: _275  and  _276
REMARK  114  A    between atoms: _276  and  _277
REMARK  115  A    between atoms: _286  and  _288
REMARK  116  A    between atoms: _288  and  _289
REMARK  117  A    between atoms: _288  and  _291
REMARK  118  A    between atoms: _291  and  _292
REMARK  119  A    between atoms: _292  and  _293
REMARK  120  A    between atoms: _293  and  _294
REMARK  121  A    between atoms: _303  and  _305
REMARK  122  A    between atoms: _305  and  _306
REMARK  123  A    between atoms: _305  and  _308
REMARK  124  A    between atoms: _308  and  _309
REMARK  125  A    between atoms: _312  and  _314
REMARK  126  A    between atoms: _314  and  _315
REMARK  127  A    between atoms: _314  and  _317
REMARK  128  A    between atoms: _317  and  _318
REMARK  129  A    between atoms: _321  and  _323
REMARK  130  A    between atoms: _323  and  _324
REMARK  131  A    between atoms: _323  and  _326
REMARK  132  A    between atoms: _326  and  _327
REMARK  133  A    between atoms: _330  and  _332
REMARK  134  A    between atoms: _332  and  _333
REMARK  135  A    between atoms: _332  and  _335
REMARK  136  A    between atoms: _335  and  _336
REMARK  137  A    between atoms: _339  and  _341
REMARK  138  A    between atoms: _341  and  _342
REMARK  139  A    between atoms: _344  and  _346
REMARK  140  A    between atoms: _346  and  _347
REMARK  141  A    between atoms: _350  and  _352
REMARK  142  A    between atoms: _352  and  _353
REMARK  143  A    between atoms: _352  and  _355
REMARK  144  A    between atoms: _355  and  _356
REMARK  145  A    between atoms: _359  and  _361
REMARK  146  A    between atoms: _361  and  _362
REMARK  147  A    between atoms: _361  and  _364
REMARK  148  A    between atoms: _364  and  _365
REMARK  149  A    between atoms: _368  and  _370
REMARK  150  A    between atoms: _370  and  _371
REMARK  151  A    between atoms: _370  and  _373
REMARK  152  A    between atoms: _373  and  _374
REMARK  153  A    between atoms: _377  and  _379
REMARK  154  A    between atoms: _379  and  _380
REMARK  155  A    between atoms: _379  and  _382
REMARK  156  A    between atoms: _385  and  _387
REMARK  157  A    between atoms: _387  and  _388
REMARK  158  A    between atoms: _387  and  _390
REMARK  159  A    between atoms: _390  and  _391
REMARK  160  A    between atoms: _394  and  _396
REMARK  161  A    between atoms: _396  and  _397
REMARK  162  A    between atoms: _396  and  _399
REMARK  163  A    between atoms: _399  and  _400
REMARK  164  A    between atoms: _400  and  _401
REMARK  165  A    between atoms: _401  and  _402
REMARK  166  A    between atoms: _411  and  _413
REMARK  167  A    between atoms: _413  and  _414
REMARK  168  A    between atoms: _413  and  _416
REMARK  169  A    between atoms: _416  and  _417
REMARK  170  A    between atoms: _417  and  _418
REMARK  171  A    between atoms: _420  and  _422
REMARK  172  A    between atoms: _422  and  _423
REMARK  173  A    between atoms: _422  and  _425
REMARK  174  A    between atoms: _425  and  _426
REMARK  175  A    between atoms: _429  and  _431
REMARK  176  A    between atoms: _431  and  _432
REMARK  177  A    between atoms: _434  and  _436
REMARK  178  A    between atoms: _436  and  _437
REMARK  179  A    between atoms: _439  and  _441
REMARK  180  A    between atoms: _441  and  _442
REMARK  181  A    between atoms: _441  and  _444
REMARK  182  A    between atoms: _444  and  _445
REMARK  183  A    between atoms: _448  and  _450
REMARK  184  A    between atoms: _450  and  _451
REMARK  185  A    between atoms: _453  and  _455
REMARK  186  A    between atoms: _455  and  _456
REMARK  187  A    between atoms: _458  and  _460
REMARK  188  A    between atoms: _460  and  _461
REMARK  189  A    between atoms: _460  and  _463
REMARK  190  A    between atoms: _463  and  _464
REMARK  191  A    between atoms: _470  and  _472
REMARK  192  A    between atoms: _472  and  _473
REMARK  193  A    between atoms: _472  and  _475
REMARK  194  A    between atoms: _478  and  _480
REMARK  195  A    between atoms: _480  and  _481
REMARK  196  A    between atoms: _480  and  _483
REMARK  197  A    between atoms: _486  and  _488
REMARK  198  A    between atoms: _488  and  _489
REMARK  199  A    between atoms: _488  and  _491
REMARK  200  A    between atoms: _491  and  _492
REMARK  201  A    between atoms: _495  and  _497
REMARK  202  A    between atoms: _497  and  _498
REMARK  203  A    between atoms: _497  and  _500
REMARK  204  A    between atoms: _500  and  _501
REMARK  205  A    between atoms: _505  and  _506
REMARK  206  A    between atoms: _511  and  _513
REMARK  207  A    between atoms: _513  and  _514
REMARK  208  A    between atoms: _517  and  _519
REMARK  209  A    between atoms: _519  and  _520
REMARK  210  A    between atoms: _519  and  _522
REMARK  211  A    between atoms: _522  and  _523
REMARK  212  A    between atoms: _528  and  _530
REMARK  213  A    between atoms: _530  and  _531
REMARK  214  A    between atoms: _530  and  _533
REMARK  215  A    between atoms: _533  and  _534
REMARK  216  A    between atoms: _537  and  _539
REMARK  217  A    between atoms: _539  and  _540
REMARK  218  A    between atoms: _539  and  _542
REMARK  219  A    between atoms: _542  and  _543
REMARK  220  A    between atoms: _546  and  _548
REMARK  221  A    between atoms: _548  and  _549
REMARK  222  A    between atoms: _551  and  _553
REMARK  223  A    between atoms: _553  and  _554
REMARK  224  A    between atoms: _553  and  _556
REMARK  225  A    between atoms: _556  and  _557
REMARK  226  A    between atoms: _557  and  _558
REMARK  227  A    between atoms: _558  and  _559
REMARK  228  A    between atoms: _568  and  _570
REMARK  229  A    between atoms: _570  and  _571
REMARK  230  A    between atoms: _570  and  _573
REMARK  231  A    between atoms: _573  and  _574
REMARK                            x       y       z     vdW  Elec       q    Type
REMARK                         _______ _______ _______ _____ _____    ______ ____
ROOT
ATOM      1  O   HOH     1      11.578  -4.164 -14.319  0.00  0.00    +0.000 OA
ENDROOT
TORSDOF 0
REMARK  Name = ../refined-set-2016/2p3a/2p3a_pocket.pdb
REMARK  231 active torsions:
REMARK  status: ('A' for Active; 'I' for Inactive)
REMARK    1  A    between atoms: _1  and  _3
REMARK    2  A    between atoms: _3  and  _4
REMARK    3  A    between atoms: _3  and  _6
REMARK    4  A    between atoms: _6  and  _7
REMARK    5  A    between atoms: _7  and  _8
REMARK    6  A    between atoms: _8  and  _9
REMARK    7  A    between atoms: _18  and  _20
REMARK    8  A    between atoms: _20  and  _21
REMARK    9  A    between atoms: _20  and  _23
REMARK   10  A    between atoms: _23  and  _24
REMARK   11  A    between atoms: _27  and  _29
REMARK   12  A    between atoms: _29  and  _30
REMARK   13  A    between atoms: _29  and  _32
REMARK   14  A    between atoms: _32  and  _33
REMARK   15  A    between atoms: _36  and  _38
REMARK   16  A    between atoms: _38  and  _39
REMARK   17  A    between atoms: _38  and  _41
REMARK   18  A    between atoms: _41  and  _42
REMARK   19  A    between atoms: _45  and  _47
REMARK   20  A    between atoms: _47  and  _48
REMARK   21  A    between atoms: _47  and  _50
REMARK   22  A    between atoms: _50  and  _51
REMARK   23  A    between atoms: _54  and  _56
REMARK   24  A    between atoms: _56  and  _57
REMARK   25  A    between atoms: _59  and  _61
REMARK   26  A    between atoms: _61  and  _62
REMARK   27  A    between atoms: _65  and  _67
REMARK   28  A    between atoms: _67  and  _68
REMARK   29  A    between atoms: _67  and  _70
REMARK   30  A    between atoms: _70  and  _71
REMARK   31  A    between atoms: _74  and  _76
REMARK   32  A    between atoms: _76  and  _77
REMARK   33  A    between atoms: _76  and  _79
REMARK   34  A    between atoms: _79  and  _80
REMARK   35  A    between atoms: _83  and  _85
REMARK   36  A    between atoms: _85  and  _86
REMARK   37  A    between atoms: _85  and  _88
REMARK   38  A    between atoms: _88  and  _89
REMARK   39  A    between atoms: _92  and  _94
REMARK   40  A    between atoms: _94  and  _95
REMARK   41  A    between atoms: _94  and  _97
REMARK   42  A    between atoms: _100  and  _102
REMARK   43  A    between atoms: _102  and  _103
REMARK   44  A    between atoms: _102  and  _105
REMARK   45  A    between atoms: _105  and  _106
REMARK   46  A    between atoms: _106  and  _107
REMARK   47  A    between atoms: _107  and  _108
REMARK   48  A    between atoms: _117  and  _119
REMARK   49  A    between atoms: _119  and  _120
REMARK   50  A    between atoms: _119  and  _122
REMARK   51  A    between atoms: _122  and  _123
REMARK   52  A    between atoms: _123  and  _124
REMARK   53  A    between atoms: _126  and  _128
REMARK   54  A    between atoms: _128  and  _129
REMARK   55  A    between atoms: _128  and  _131
REMARK   56  A    between atoms: _131  and  _132
REMARK   57  A    between atoms: _135  and  _137
REMARK   58  A    between atoms: _137  and  _138
REMARK   59  A    between atoms: _140  and  _142
REMARK   60  A    between atoms: _142  and  _143
REMARK   61  A    between atoms: _145  and  _147
REMARK   62  A    between atoms: _147  and  _148
REMARK   63  A    between atoms: _147  and  _150
REMARK   64  A    between atoms: _150  and  _151
REMARK   65  A    between atoms: _154  and  _156
REMARK   66  A    between atoms: _156  and  _157
REMARK   67  A    between atoms: _159  and  _161
REMARK   68  A    between atoms: _161  and  _162
REMARK   69  A    between atoms: _164  and  _166
REMARK   70  A    between atoms: _166  and  _167
REMARK   71  A    between atoms: _166  and  _169
REMARK   72  A    between atoms: _169  and  _170
REMARK   73  A    between atoms: _176  and  _178
REMARK   74  A    between atoms: _178  and  _179
REMARK   75  A    between atoms: _178  and  _181
REMARK   76  A    between atoms: _184  and  _186
REMARK   77  A    between atoms: _186  and  _187
REMARK   78  A    between atoms: _186  and  _189
REMARK   79  A    between atoms: _192  and  _194
REMARK   80  A    between atoms: _194  and  _195
REMARK   81  A    between atoms: _194  and  _197
REMARK   82  A    between atoms: _197  and  _198
REMARK   83  A    between atoms: _198  and  _199
REMARK   84  A    between atoms: _204  and  _206
REMARK   85  A    between atoms: _206  and  _207
REMARK   86  A    between atoms: _206  and  _209
REMARK   87  A    between atoms: _209  and  _210
REMARK   88  A    between atoms: _213  and  _215
REMARK   89  A    between atoms: _215  and  _216
REMARK   90  A    between atoms: _215  and  _218
REMARK   91  A    between atoms: _218  and  _219
REMARK   92  A    between atoms: _223  and  _224
REMARK   93  A    between atoms: _229  and  _231
REMARK   94  A    between atoms: _231  and  _232
REMARK   95  A    between atoms: _235  and  _237
REMARK   96  A    between atoms: _237  and  _238
REMARK   97  A    between atoms: _237  and  _240
REMARK   98  A    between atoms: _240  and  _241
REMARK   99  A    between atoms: _246  and  _248
REMARK  100  A    between atoms: _248  and  _249
REMARK  101  A    between atoms: _248  and  _251
REMARK  102  A    between atoms: _251  and  _252
REMARK  103  A    between atoms: _255  and  _257
REMARK  104  A    between atoms: _257  and  _258
REMARK  105  A    between atoms: _257  and  _260
REMARK  106  A    between atoms: _260  and  _261
REMARK  107  A    between atoms: _264  and  _266
REMARK  108  A    between atoms: _266  and  _267
REMARK  109  A    between atoms: _269  and  _271
REMARK  110  A    between atoms: _271  and  _272
REMARK  111  A    between atoms: _271  and  _274
REMARK  112  A    between atoms: _274  and  _275
REMARK  113  A    between atoms: _275  and  _276
REMARK  114  A    between atoms: _276  and  _277
REMARK  115  A    between atoms: _286  and  _288
REMARK  116  A    between atoms: _288  and  _289
REMARK  117  A    between atoms: _288  and  _291
REMARK  118  A    between atoms: _291  and  _292
REMARK  119  A    between atoms: _292  and  _293
REMARK  120  A    between atoms: _293  and  _294
REMARK  121  A    between atoms: _303  and  _305
REMARK  122  A    between atoms: _305  and  _306
REMARK  123  A    between atoms: _305  and  _308
REMARK  124  A    between atoms: _308  and  _309
REMARK  125  A    between atoms: _312  and  _314
REMARK  126  A    between atoms: _314  and  _315
REMARK  127  A    between atoms: _314  and  _317
REMARK  128  A    between atoms: _317  and  _318
REMARK  129  A    between atoms: _321  and  _323
REMARK  130  A    between atoms: _323  and  _324
REMARK  131  A    between atoms: _323  and  _326
REMARK  132  A    between atoms: _326  and  _327
REMARK  133  A    between atoms: _330  and  _332
REMARK  134  A    between atoms: _332  and  _333
REMARK  135  A    between atoms: _332  and  _335
REMARK  136  A    between atoms: _335  and  _336
REMARK  137  A    between atoms: _339  and  _341
REMARK  138  A    between atoms: _341  and  _342
REMARK  139  A    between atoms: _344  and  _346
REMARK  140  A    between atoms: _346  and  _347
REMARK  141  A    between atoms: _350  and  _352
REMARK  142  A    between atoms: _352  and  _353
REMARK  143  A    between atoms: _352  and  _355
REMARK  144  A    between atoms: _355  and  _356
REMARK  145  A    between atoms: _359  and  _361
REMARK  146  A    between atoms: _361  and  _362
REMARK  147  A    between atoms: _361  and  _364
REMARK  148  A    between atoms: _364  and  _365
REMARK  149  A    between atoms: _368  and  _370
REMARK  150  A    between atoms: _370  and  _371
REMARK  151  A    between atoms: _370  and  _373
REMARK  152  A    between atoms: _373  and  _374
REMARK  153  A    between atoms: _377  and  _379
REMARK  154  A    between atoms: _379  and  _380
REMARK  155  A    between atoms: _379  and  _382
REMARK  156  A    between atoms: _385  and  _387
REMARK  157  A    between atoms: _387  and  _388
REMARK  158  A    between atoms: _387  and  _390
REMARK  159  A    between atoms: _390  and  _391
REMARK  160  A    between atoms: _394  and  _396
REMARK  161  A    between atoms: _396  and  _397
REMARK  162  A    between atoms: _396  and  _399
REMARK  163  A    between atoms: _399  and  _400
REMARK  164  A    between atoms: _400  and  _401
REMARK  165  A    between atoms: _401  and  _402
REMARK  166  A    between atoms: _411  and  _413
REMARK  167  A    between atoms: _413  and  _414
REMARK  168  A    between atoms: _413  and  _416
REMARK  169  A    between atoms: _416  and  _417
REMARK  170  A    between atoms: _417  and  _418
REMARK  171  A    between atoms: _420  and  _422
REMARK  172  A    between atoms: _422  and  _423
REMARK  173  A    between atoms: _422  and  _425
REMARK  174  A    between atoms: _425  and  _426
REMARK  175  A    between atoms: _429  and  _431
REMARK  176  A    between atoms: _431  and  _432
REMARK  177  A    between atoms: _434  and  _436
REMARK  178  A    between atoms: _436  and  _437
REMARK  179  A    between atoms: _439  and  _441
REMARK  180  A    between atoms: _441  and  _442
REMARK  181  A    between atoms: _441  and  _444
REMARK  182  A    between atoms: _444  and  _445
REMARK  183  A    between atoms: _448  and  _450
REMARK  184  A    between atoms: _450  and  _451
REMARK  185  A    between atoms: _453  and  _455
REMARK  186  A    between atoms: _455  and  _456
REMARK  187  A    between atoms: _458  and  _460
REMARK  188  A    between atoms: _460  and  _461
REMARK  189  A    between atoms: _460  and  _463
REMARK  190  A    between atoms: _463  and  _464
REMARK  191  A    between atoms: _470  and  _472
REMARK  192  A    between atoms: _472  and  _473
REMARK  193  A    between atoms: _472  and  _475
REMARK  194  A    between atoms: _478  and  _480
REMARK  195  A    between atoms: _480  and  _481
REMARK  196  A    between atoms: _480  and  _483
REMARK  197  A    between atoms: _486  and  _488
REMARK  198  A    between atoms: _488  and  _489
REMARK  199  A    between atoms: _488  and  _491
REMARK  200  A    between atoms: _491  and  _492
REMARK  201  A    between atoms: _495  and  _497
REMARK  202  A    between atoms: _497  and  _498
REMARK  203  A    between atoms: _497  and  _500
REMARK  204  A    between atoms: _500  and  _501
REMARK  205  A    between atoms: _505  and  _506
REMARK  206  A    between atoms: _511  and  _513
REMARK  207  A    between atoms: _513  and  _514
REMARK  208  A    between atoms: _517  and  _519
REMARK  209  A    between atoms: _519  and  _520
REMARK  210  A    between atoms: _519  and  _522
REMARK  211  A    between atoms: _522  and  _523
REMARK  212  A    between atoms: _528  and  _530
REMARK  213  A    between atoms: _530  and  _531
REMARK  214  A    between atoms: _530  and  _533
REMARK  215  A    between atoms: _533  and  _534
REMARK  216  A    between atoms: _537  and  _539
REMARK  217  A    between atoms: _539  and  _540
REMARK  218  A    between atoms: _539  and  _542
REMARK  219  A    between atoms: _542  and  _543
REMARK  220  A    between atoms: _546  and  _548
REMARK  221  A    between atoms: _548  and  _549
REMARK  222  A    between atoms: _551  and  _553
REMARK  223  A    between atoms: _553  and  _554
REMARK  224  A    between atoms: _553  and  _556
REMARK  225  A    between atoms: _556  and  _557
REMARK  226  A    between atoms: _557  and  _558
REMARK  227  A    between atoms: _558  and  _559
REMARK  228  A    between atoms: _568  and  _570
REMARK  229  A    between atoms: _570  and  _571
REMARK  230  A    between atoms: _570  and  _573
REMARK  231  A    between atoms: _573  and  _574
REMARK                            x       y       z     vdW  Elec       q    Type
REMARK                         _______ _______ _______ _____ _____    ______ ____
ROOT
ATOM      1  O   HOH     1      16.340   9.850   2.872  0.00  0.00    +0.000 OA
ENDROOT
TORSDOF 0
REMARK  Name = ../refined-set-2016/2p3a/2p3a_pocket.pdb
REMARK  231 active torsions:
REMARK  status: ('A' for Active; 'I' for Inactive)
REMARK    1  A    between atoms: _1  and  _3
REMARK    2  A    between atoms: _3  and  _4
REMARK    3  A    between atoms: _3  and  _6
REMARK    4  A    between atoms: _6  and  _7
REMARK    5  A    between atoms: _7  and  _8
REMARK    6  A    between atoms: _8  and  _9
REMARK    7  A    between atoms: _18  and  _20
REMARK    8  A    between atoms: _20  and  _21
REMARK    9  A    between atoms: _20  and  _23
REMARK   10  A    between atoms: _23  and  _24
REMARK   11  A    between atoms: _27  and  _29
REMARK   12  A    between atoms: _29  and  _30
REMARK   13  A    between atoms: _29  and  _32
REMARK   14  A    between atoms: _32  and  _33
REMARK   15  A    between atoms: _36  and  _38
REMARK   16  A    between atoms: _38  and  _39
REMARK   17  A    between atoms: _38  and  _41
REMARK   18  A    between atoms: _41  and  _42
REMARK   19  A    between atoms: _45  and  _47
REMARK   20  A    between atoms: _47  and  _48
REMARK   21  A    between atoms: _47  and  _50
REMARK   22  A    between atoms: _50  and  _51
REMARK   23  A    between atoms: _54  and  _56
REMARK   24  A    between atoms: _56  and  _57
REMARK   25  A    between atoms: _59  and  _61
REMARK   26  A    between atoms: _61  and  _62
REMARK   27  A    between atoms: _65  and  _67
REMARK   28  A    between atoms: _67  and  _68
REMARK   29  A    between atoms: _67  and  _70
REMARK   30  A    between atoms: _70  and  _71
REMARK   31  A    between atoms: _74  and  _76
REMARK   32  A    between atoms: _76  and  _77
REMARK   33  A    between atoms: _76  and  _79
REMARK   34  A    between atoms: _79  and  _80
REMARK   35  A    between atoms: _83  and  _85
REMARK   36  A    between atoms: _85  and  _86
REMARK   37  A    between atoms: _85  and  _88
REMARK   38  A    between atoms: _88  and  _89
REMARK   39  A    between atoms: _92  and  _94
REMARK   40  A    between atoms: _94  and  _95
REMARK   41  A    between atoms: _94  and  _97
REMARK   42  A    between atoms: _100  and  _102
REMARK   43  A    between atoms: _102  and  _103
REMARK   44  A    between atoms: _102  and  _105
REMARK   45  A    between atoms: _105  and  _106
REMARK   46  A    between atoms: _106  and  _107
REMARK   47  A    between atoms: _107  and  _108
REMARK   48  A    between atoms: _117  and  _119
REMARK   49  A    between atoms: _119  and  _120
REMARK   50  A    between atoms: _119  and  _122
REMARK   51  A    between atoms: _122  and  _123
REMARK   52  A    between atoms: _123  and  _124
REMARK   53  A    between atoms: _126  and  _128
REMARK   54  A    between atoms: _128  and  _129
REMARK   55  A    between atoms: _128  and  _131
REMARK   56  A    between atoms: _131  and  _132
REMARK   57  A    between atoms: _135  and  _137
REMARK   58  A    between atoms: _137  and  _138
REMARK   59  A    between atoms: _140  and  _142
REMARK   60  A    between atoms: _142  and  _143
REMARK   61  A    between atoms: _145  and  _147
REMARK   62  A    between atoms: _147  and  _148
REMARK   63  A    between atoms: _147  and  _150
REMARK   64  A    between atoms: _150  and  _151
REMARK   65  A    between atoms: _154  and  _156
REMARK   66  A    between atoms: _156  and  _157
REMARK   67  A    between atoms: _159  and  _161
REMARK   68  A    between atoms: _161  and  _162
REMARK   69  A    between atoms: _164  and  _166
REMARK   70  A    between atoms: _166  and  _167
REMARK   71  A    between atoms: _166  and  _169
REMARK   72  A    between atoms: _169  and  _170
REMARK   73  A    between atoms: _176  and  _178
REMARK   74  A    between atoms: _178  and  _179
REMARK   75  A    between atoms: _178  and  _181
REMARK   76  A    between atoms: _184  and  _186
REMARK   77  A    between atoms: _186  and  _187
REMARK   78  A    between atoms: _186  and  _189
REMARK   79  A    between atoms: _192  and  _194
REMARK   80  A    between atoms: _194  and  _195
REMARK   81  A    between atoms: _194  and  _197
REMARK   82  A    between atoms: _197  and  _198
REMARK   83  A    between atoms: _198  and  _199
REMARK   84  A    between atoms: _204  and  _206
REMARK   85  A    between atoms: _206  and  _207
REMARK   86  A    between atoms: _206  and  _209
REMARK   87  A    between atoms: _209  and  _210
REMARK   88  A    between atoms: _213  and  _215
REMARK   89  A    between atoms: _215  and  _216
REMARK   90  A    between atoms: _215  and  _218
REMARK   91  A    between atoms: _218  and  _219
REMARK   92  A    between atoms: _223  and  _224
REMARK   93  A    between atoms: _229  and  _231
REMARK   94  A    between atoms: _231  and  _232
REMARK   95  A    between atoms: _235  and  _237
REMARK   96  A    between atoms: _237  and  _238
REMARK   97  A    between atoms: _237  and  _240
REMARK   98  A    between atoms: _240  and  _241
REMARK   99  A    between atoms: _246  and  _248
REMARK  100  A    between atoms: _248  and  _249
REMARK  101  A    between atoms: _248  and  _251
REMARK  102  A    between atoms: _251  and  _252
REMARK  103  A    between atoms: _255  and  _257
REMARK  104  A    between atoms: _257  and  _258
REMARK  105  A    between atoms: _257  and  _260
REMARK  106  A    between atoms: _260  and  _261
REMARK  107  A    between atoms: _264  and  _266
REMARK  108  A    between atoms: _266  and  _267
REMARK  109  A    between atoms: _269  and  _271
REMARK  110  A    between atoms: _271  and  _272
REMARK  111  A    between atoms: _271  and  _274
REMARK  112  A    between atoms: _274  and  _275
REMARK  113  A    between atoms: _275  and  _276
REMARK  114  A    between atoms: _276  and  _277
REMARK  115  A    between atoms: _286  and  _288
REMARK  116  A    between atoms: _288  and  _289
REMARK  117  A    between atoms: _288  and  _291
REMARK  118  A    between atoms: _291  and  _292
REMARK  119  A    between atoms: _292  and  _293
REMARK  120  A    between atoms: _293  and  _294
REMARK  121  A    between atoms: _303  and  _305
REMARK  122  A    between atoms: _305  and  _306
REMARK  123  A    between atoms: _305  and  _308
REMARK  124  A    between atoms: _308  and  _309
REMARK  125  A    between atoms: _312  and  _314
REMARK  126  A    between atoms: _314  and  _315
REMARK  127  A    between atoms: _314  and  _317
REMARK  128  A    between atoms: _317  and  _318
REMARK  129  A    between atoms: _321  and  _323
REMARK  130  A    between atoms: _323  and  _324
REMARK  131  A    between atoms: _323  and  _326
REMARK  132  A    between atoms: _326  and  _327
REMARK  133  A    between atoms: _330  and  _332
REMARK  134  A    between atoms: _332  and  _333
REMARK  135  A    between atoms: _332  and  _335
REMARK  136  A    between atoms: _335  and  _336
REMARK  137  A    between atoms: _339  and  _341
REMARK  138  A    between atoms: _341  and  _342
REMARK  139  A    between atoms: _344  and  _346
REMARK  140  A    between atoms: _346  and  _347
REMARK  141  A    between atoms: _350  and  _352
REMARK  142  A    between atoms: _352  and  _353
REMARK  143  A    between atoms: _352  and  _355
REMARK  144  A    between atoms: _355  and  _356
REMARK  145  A    between atoms: _359  and  _361
REMARK  146  A    between atoms: _361  and  _362
REMARK  147  A    between atoms: _361  and  _364
REMARK  148  A    between atoms: _364  and  _365
REMARK  149  A    between atoms: _368  and  _370
REMARK  150  A    between atoms: _370  and  _371
REMARK  151  A    between atoms: _370  and  _373
REMARK  152  A    between atoms: _373  and  _374
REMARK  153  A    between atoms: _377  and  _379
REMARK  154  A    between atoms: _379  and  _380
REMARK  155  A    between atoms: _379  and  _382
REMARK  156  A    between atoms: _385  and  _387
REMARK  157  A    between atoms: _387  and  _388
REMARK  158  A    between atoms: _387  and  _390
REMARK  159  A    between atoms: _390  and  _391
REMARK  160  A    between atoms: _394  and  _396
REMARK  161  A    between atoms: _396  and  _397
REMARK  162  A    between atoms: _396  and  _399
REMARK  163  A    between atoms: _399  and  _400
REMARK  164  A    between atoms: _400  and  _401
REMARK  165  A    between atoms: _401  and  _402
REMARK  166  A    between atoms: _411  and  _413
REMARK  167  A    between atoms: _413  and  _414
REMARK  168  A    between atoms: _413  and  _416
REMARK  169  A    between atoms: _416  and  _417
REMARK  170  A    between atoms: _417  and  _418
REMARK  171  A    between atoms: _420  and  _422
REMARK  172  A    between atoms: _422  and  _423
REMARK  173  A    between atoms: _422  and  _425
REMARK  174  A    between atoms: _425  and  _426
REMARK  175  A    between atoms: _429  and  _431
REMARK  176  A    between atoms: _431  and  _432
REMARK  177  A    between atoms: _434  and  _436
REMARK  178  A    between atoms: _436  and  _437
REMARK  179  A    between atoms: _439  and  _441
REMARK  180  A    between atoms: _441  and  _442
REMARK  181  A    between atoms: _441  and  _444
REMARK  182  A    between atoms: _444  and  _445
REMARK  183  A    between atoms: _448  and  _450
REMARK  184  A    between atoms: _450  and  _451
REMARK  185  A    between atoms: _453  and  _455
REMARK  186  A    between atoms: _455  and  _456
REMARK  187  A    between atoms: _458  and  _460
REMARK  188  A    between atoms: _460  and  _461
REMARK  189  A    between atoms: _460  and  _463
REMARK  190  A    between atoms: _463  and  _464
REMARK  191  A    between atoms: _470  and  _472
REMARK  192  A    between atoms: _472  and  _473
REMARK  193  A    between atoms: _472  and  _475
REMARK  194  A    between atoms: _478  and  _480
REMARK  195  A    between atoms: _480  and  _481
REMARK  196  A    between atoms: _480  and  _483
REMARK  197  A    between atoms: _486  and  _488
REMARK  198  A    between atoms: _488  and  _489
REMARK  199  A    between atoms: _488  and  _491
REMARK  200  A    between atoms: _491  and  _492
REMARK  201  A    between atoms: _495  and  _497
REMARK  202  A    between atoms: _497  and  _498
REMARK  203  A    between atoms: _497  and  _500
REMARK  204  A    between atoms: _500  and  _501
REMARK  205  A    between atoms: _505  and  _506
REMARK  206  A    between atoms: _511  and  _513
REMARK  207  A    between atoms: _513  and  _514
REMARK  208  A    between atoms: _517  and  _519
REMARK  209  A    between atoms: _519  and  _520
REMARK  210  A    between atoms: _519  and  _522
REMARK  211  A    between atoms: _522  and  _523
REMARK  212  A    between atoms: _528  and  _530
REMARK  213  A    between atoms: _530  and  _531
REMARK  214  A    between atoms: _530  and  _533
REMARK  215  A    between atoms: _533  and  _534
REMARK  216  A    between atoms: _537  and  _539
REMARK  217  A    between atoms: _539  and  _540
REMARK  218  A    between atoms: _539  and  _542
REMARK  219  A    between atoms: _542  and  _543
REMARK  220  A    between atoms: _546  and  _548
REMARK  221  A    between atoms: _548  and  _549
REMARK  222  A    between atoms: _551  and  _553
REMARK  223  A    between atoms: _553  and  _554
REMARK  224  A    between atoms: _553  and  _556
REMARK  225  A    between atoms: _556  and  _557
REMARK  226  A    between atoms: _557  and  _558
REMARK  227  A    between atoms: _558  and  _559
REMARK  228  A    between atoms: _568  and  _570
REMARK  229  A    between atoms: _570  and  _571
REMARK  230  A    between atoms: _570  and  _573
REMARK  231  A    between atoms: _573  and  _574
REMARK                            x       y       z     vdW  Elec       q    Type
REMARK                         _______ _______ _______ _____ _____    ______ ____
ROOT
ATOM      1  O   HOH     1      16.494   9.200   7.330  0.00  0.00    +0.000 OA
ENDROOT
TORSDOF 0
