REMARK  Name = ../refined-set-2016/3ml5/3ml5_pocket.pdb
REMARK  142 active torsions:
REMARK  status: ('A' for Active; 'I' for Inactive)
REMARK    1  A    between atoms: _1  and  _5
REMARK    2  A    between atoms: _5  and  _6
REMARK    3  A    between atoms: _8  and  _10
REMARK    4  A    between atoms: _10  and  _11
REMARK    5  A    between atoms: _10  and  _13
REMARK    6  A    between atoms: _13  and  _14
REMARK    7  A    between atoms: _24  and  _26
REMARK    8  A    between atoms: _26  and  _27
REMARK    9  A    between atoms: _26  and  _29
REMARK   10  A    between atoms: _29  and  _30
REMARK   11  A    between atoms: _35  and  _36
REMARK   12  A    between atoms: _38  and  _40
REMARK   13  A    between atoms: _40  and  _41
REMARK   14  A    between atoms: _40  and  _43
REMARK   15  A    between atoms: _43  and  _44
REMARK   16  A    between atoms: _47  and  _48
REMARK   17  A    between atoms: _53  and  _55
REMARK   18  A    between atoms: _55  and  _56
REMARK   19  A    between atoms: _55  and  _58
REMARK   20  A    between atoms: _58  and  _59
REMARK   21  A    between atoms: _61  and  _63
REMARK   22  A    between atoms: _63  and  _64
REMARK   23  A    between atoms: _63  and  _66
REMARK   24  A    between atoms: _66  and  _67
REMARK   25  A    between atoms: _67  and  _68
REMARK   26  A    between atoms: _73  and  _75
REMARK   27  A    between atoms: _75  and  _76
REMARK   28  A    between atoms: _75  and  _78
REMARK   29  A    between atoms: _78  and  _79
REMARK   30  A    between atoms: _79  and  _80
REMARK   31  A    between atoms: _80  and  _81
REMARK   32  A    between atoms: _81  and  _82
REMARK   33  A    between atoms: _86  and  _88
REMARK   34  A    between atoms: _88  and  _89
REMARK   35  A    between atoms: _88  and  _91
REMARK   36  A    between atoms: _91  and  _92
REMARK   37  A    between atoms: _92  and  _93
REMARK   38  A    between atoms: _98  and  _100
REMARK   39  A    between atoms: _100  and  _101
REMARK   40  A    between atoms: _100  and  _103
REMARK   41  A    between atoms: _103  and  _104
REMARK   42  A    between atoms: _110  and  _112
REMARK   43  A    between atoms: _123  and  _126
REMARK   44  A    between atoms: _126  and  _127
REMARK   45  A    between atoms: _135  and  _136
REMARK   46  A    between atoms: _144  and  _146
REMARK   47  A    between atoms: _146  and  _147
REMARK   48  A    between atoms: _146  and  _149
REMARK   49  A    between atoms: _149  and  _150
REMARK   50  A    between atoms: _150  and  _151
REMARK   51  A    between atoms: _154  and  _156
REMARK   52  A    between atoms: _156  and  _157
REMARK   53  A    between atoms: _156  and  _159
REMARK   54  A    between atoms: _159  and  _160
REMARK   55  A    between atoms: _165  and  _167
REMARK   56  A    between atoms: _167  and  _168
REMARK   57  A    between atoms: _167  and  _170
REMARK   58  A    between atoms: _170  and  _171
REMARK   59  A    between atoms: _171  and  _172
REMARK   60  A    between atoms: _175  and  _177
REMARK   61  A    between atoms: _177  and  _178
REMARK   62  A    between atoms: _177  and  _180
REMARK   63  A    between atoms: _180  and  _181
REMARK   64  A    between atoms: _184  and  _186
REMARK   65  A    between atoms: _186  and  _187
REMARK   66  A    between atoms: _186  and  _189
REMARK   67  A    between atoms: _189  and  _190
REMARK   68  A    between atoms: _191  and  ZN_395
REMARK   69  A    between atoms: _195  and  _197
REMARK   70  A    between atoms: _197  and  _198
REMARK   71  A    between atoms: _197  and  _200
REMARK   72  A    between atoms: _200  and  _201
REMARK   73  A    between atoms: _204  and  _206
REMARK   74  A    between atoms: _206  and  _207
REMARK   75  A    between atoms: _206  and  _209
REMARK   76  A    between atoms: _212  and  _214
REMARK   77  A    between atoms: _214  and  _215
REMARK   78  A    between atoms: _214  and  _217
REMARK   79  A    between atoms: _217  and  _218
REMARK   80  A    between atoms: _223  and  _225
REMARK   81  A    between atoms: _225  and  _226
REMARK   82  A    between atoms: _225  and  _228
REMARK   83  A    between atoms: _228  and  _229
REMARK   84  A    between atoms: _235  and  _237
REMARK   85  A    between atoms: _237  and  _238
REMARK   86  A    between atoms: _240  and  _242
REMARK   87  A    between atoms: _242  and  _243
REMARK   88  A    between atoms: _246  and  _248
REMARK   89  A    between atoms: _248  and  _249
REMARK   90  A    between atoms: _248  and  _251
REMARK   91  A    between atoms: _251  and  _252
REMARK   92  A    between atoms: _255  and  _257
REMARK   93  A    between atoms: _257  and  _258
REMARK   94  A    between atoms: _261  and  _263
REMARK   95  A    between atoms: _263  and  _264
REMARK   96  A    between atoms: _263  and  _266
REMARK   97  A    between atoms: _269  and  _271
REMARK   98  A    between atoms: _271  and  _272
REMARK   99  A    between atoms: _271  and  _274
REMARK  100  A    between atoms: _277  and  _279
REMARK  101  A    between atoms: _279  and  _280
REMARK  102  A    between atoms: _279  and  _282
REMARK  103  A    between atoms: _282  and  _283
REMARK  104  A    between atoms: _285  and  _287
REMARK  105  A    between atoms: _287  and  _288
REMARK  106  A    between atoms: _287  and  _290
REMARK  107  A    between atoms: _290  and  _291
REMARK  108  A    between atoms: _294  and  _296
REMARK  109  A    between atoms: _296  and  _297
REMARK  110  A    between atoms: _296  and  _299
REMARK  111  A    between atoms: _299  and  _300
REMARK  112  A    between atoms: _303  and  _305
REMARK  113  A    between atoms: _305  and  _306
REMARK  114  A    between atoms: _305  and  _308
REMARK  115  A    between atoms: _308  and  _309
REMARK  116  A    between atoms: _313  and  _314
REMARK  117  A    between atoms: _320  and  _321
REMARK  118  A    between atoms: _326  and  _328
REMARK  119  A    between atoms: _328  and  _329
REMARK  120  A    between atoms: _328  and  _331
REMARK  121  A    between atoms: _331  and  _332
REMARK  122  A    between atoms: _335  and  _337
REMARK  123  A    between atoms: _337  and  _338
REMARK  124  A    between atoms: _337  and  _340
REMARK  125  A    between atoms: _340  and  _341
REMARK  126  A    between atoms: _343  and  _345
REMARK  127  A    between atoms: _345  and  _346
REMARK  128  A    between atoms: _345  and  _348
REMARK  129  A    between atoms: _351  and  _353
REMARK  130  A    between atoms: _353  and  _354
REMARK  131  A    between atoms: _353  and  _356
REMARK  132  A    between atoms: _356  and  _357
REMARK  133  A    between atoms: _367  and  _369
REMARK  134  A    between atoms: _369  and  _370
REMARK  135  A    between atoms: _369  and  _372
REMARK  136  A    between atoms: _372  and  _373
REMARK  137  A    between atoms: _378  and  _380
REMARK  138  A    between atoms: _380  and  _381
REMARK  139  A    between atoms: _380  and  _383
REMARK  140  A    between atoms: _383  and  _384
REMARK  141  A    between atoms: _384  and  _385
REMARK  142  A    between atoms: _385  and  _386
REMARK                            x       y       z     vdW  Elec       q    Type
REMARK                         _______ _______ _______ _____ _____    ______ ____
ROOT
ATOM      1  N   GLY A   1      -8.402  -6.937  27.577  0.00  0.00    +0.385 N 
ATOM      2  H1  GLY A   1      -9.178  -7.618  27.454  0.00  0.00    -0.089 HD
ATOM      3  H2  GLY A   1      -7.497  -7.397  27.353  0.00  0.00    -0.089 HD
ATOM      4  H3  GLY A   1      -8.547  -6.126  26.942  0.00  0.00    -0.089 HD
ENDROOT
BRANCH   1   5
ATOM      5  CA  GLY A   1      -8.380  -6.470  28.966  0.00  0.00    -0.012 C 
BRANCH   5   6
ATOM      6  C   GLY A   1      -7.265  -5.478  29.186  0.00  0.00    +0.183 C 
ATOM      7  O   GLY A   1      -6.371  -5.323  28.342  0.00  0.00    -0.291 OA
ENDBRANCH   5   6
ENDBRANCH   1   5
TORSDOF 2
REMARK  Name = ../refined-set-2016/3ml5/3ml5_pocket.pdb
REMARK  142 active torsions:
REMARK  status: ('A' for Active; 'I' for Inactive)
REMARK    1  A    between atoms: _1  and  _5
REMARK    2  A    between atoms: _5  and  _6
REMARK    3  A    between atoms: _8  and  _10
REMARK    4  A    between atoms: _10  and  _11
REMARK    5  A    between atoms: _10  and  _13
REMARK    6  A    between atoms: _13  and  _14
REMARK    7  A    between atoms: _24  and  _26
REMARK    8  A    between atoms: _26  and  _27
REMARK    9  A    between atoms: _26  and  _29
REMARK   10  A    between atoms: _29  and  _30
REMARK   11  A    between atoms: _35  and  _36
REMARK   12  A    between atoms: _38  and  _40
REMARK   13  A    between atoms: _40  and  _41
REMARK   14  A    between atoms: _40  and  _43
REMARK   15  A    between atoms: _43  and  _44
REMARK   16  A    between atoms: _47  and  _48
REMARK   17  A    between atoms: _53  and  _55
REMARK   18  A    between atoms: _55  and  _56
REMARK   19  A    between atoms: _55  and  _58
REMARK   20  A    between atoms: _58  and  _59
REMARK   21  A    between atoms: _61  and  _63
REMARK   22  A    between atoms: _63  and  _64
REMARK   23  A    between atoms: _63  and  _66
REMARK   24  A    between atoms: _66  and  _67
REMARK   25  A    between atoms: _67  and  _68
REMARK   26  A    between atoms: _73  and  _75
REMARK   27  A    between atoms: _75  and  _76
REMARK   28  A    between atoms: _75  and  _78
REMARK   29  A    between atoms: _78  and  _79
REMARK   30  A    between atoms: _79  and  _80
REMARK   31  A    between atoms: _80  and  _81
REMARK   32  A    between atoms: _81  and  _82
REMARK   33  A    between atoms: _86  and  _88
REMARK   34  A    between atoms: _88  and  _89
REMARK   35  A    between atoms: _88  and  _91
REMARK   36  A    between atoms: _91  and  _92
REMARK   37  A    between atoms: _92  and  _93
REMARK   38  A    between atoms: _98  and  _100
REMARK   39  A    between atoms: _100  and  _101
REMARK   40  A    between atoms: _100  and  _103
REMARK   41  A    between atoms: _103  and  _104
REMARK   42  A    between atoms: _110  and  _112
REMARK   43  A    between atoms: _123  and  _126
REMARK   44  A    between atoms: _126  and  _127
REMARK   45  A    between atoms: _135  and  _136
REMARK   46  A    between atoms: _144  and  _146
REMARK   47  A    between atoms: _146  and  _147
REMARK   48  A    between atoms: _146  and  _149
REMARK   49  A    between atoms: _149  and  _150
REMARK   50  A    between atoms: _150  and  _151
REMARK   51  A    between atoms: _154  and  _156
REMARK   52  A    between atoms: _156  and  _157
REMARK   53  A    between atoms: _156  and  _159
REMARK   54  A    between atoms: _159  and  _160
REMARK   55  A    between atoms: _165  and  _167
REMARK   56  A    between atoms: _167  and  _168
REMARK   57  A    between atoms: _167  and  _170
REMARK   58  A    between atoms: _170  and  _171
REMARK   59  A    between atoms: _171  and  _172
REMARK   60  A    between atoms: _175  and  _177
REMARK   61  A    between atoms: _177  and  _178
REMARK   62  A    between atoms: _177  and  _180
REMARK   63  A    between atoms: _180  and  _181
REMARK   64  A    between atoms: _184  and  _186
REMARK   65  A    between atoms: _186  and  _187
REMARK   66  A    between atoms: _186  and  _189
REMARK   67  A    between atoms: _189  and  _190
REMARK   68  A    between atoms: _191  and  ZN_395
REMARK   69  A    between atoms: _195  and  _197
REMARK   70  A    between atoms: _197  and  _198
REMARK   71  A    between atoms: _197  and  _200
REMARK   72  A    between atoms: _200  and  _201
REMARK   73  A    between atoms: _204  and  _206
REMARK   74  A    between atoms: _206  and  _207
REMARK   75  A    between atoms: _206  and  _209
REMARK   76  A    between atoms: _212  and  _214
REMARK   77  A    between atoms: _214  and  _215
REMARK   78  A    between atoms: _214  and  _217
REMARK   79  A    between atoms: _217  and  _218
REMARK   80  A    between atoms: _223  and  _225
REMARK   81  A    between atoms: _225  and  _226
REMARK   82  A    between atoms: _225  and  _228
REMARK   83  A    between atoms: _228  and  _229
REMARK   84  A    between atoms: _235  and  _237
REMARK   85  A    between atoms: _237  and  _238
REMARK   86  A    between atoms: _240  and  _242
REMARK   87  A    between atoms: _242  and  _243
REMARK   88  A    between atoms: _246  and  _248
REMARK   89  A    between atoms: _248  and  _249
REMARK   90  A    between atoms: _248  and  _251
REMARK   91  A    between atoms: _251  and  _252
REMARK   92  A    between atoms: _255  and  _257
REMARK   93  A    between atoms: _257  and  _258
REMARK   94  A    between atoms: _261  and  _263
REMARK   95  A    between atoms: _263  and  _264
REMARK   96  A    between atoms: _263  and  _266
REMARK   97  A    between atoms: _269  and  _271
REMARK   98  A    between atoms: _271  and  _272
REMARK   99  A    between atoms: _271  and  _274
REMARK  100  A    between atoms: _277  and  _279
REMARK  101  A    between atoms: _279  and  _280
REMARK  102  A    between atoms: _279  and  _282
REMARK  103  A    between atoms: _282  and  _283
REMARK  104  A    between atoms: _285  and  _287
REMARK  105  A    between atoms: _287  and  _288
REMARK  106  A    between atoms: _287  and  _290
REMARK  107  A    between atoms: _290  and  _291
REMARK  108  A    between atoms: _294  and  _296
REMARK  109  A    between atoms: _296  and  _297
REMARK  110  A    between atoms: _296  and  _299
REMARK  111  A    between atoms: _299  and  _300
REMARK  112  A    between atoms: _303  and  _305
REMARK  113  A    between atoms: _305  and  _306
REMARK  114  A    between atoms: _305  and  _308
REMARK  115  A    between atoms: _308  and  _309
REMARK  116  A    between atoms: _313  and  _314
REMARK  117  A    between atoms: _320  and  _321
REMARK  118  A    between atoms: _326  and  _328
REMARK  119  A    between atoms: _328  and  _329
REMARK  120  A    between atoms: _328  and  _331
REMARK  121  A    between atoms: _331  and  _332
REMARK  122  A    between atoms: _335  and  _337
REMARK  123  A    between atoms: _337  and  _338
REMARK  124  A    between atoms: _337  and  _340
REMARK  125  A    between atoms: _340  and  _341
REMARK  126  A    between atoms: _343  and  _345
REMARK  127  A    between atoms: _345  and  _346
REMARK  128  A    between atoms: _345  and  _348
REMARK  129  A    between atoms: _351  and  _353
REMARK  130  A    between atoms: _353  and  _354
REMARK  131  A    between atoms: _353  and  _356
REMARK  132  A    between atoms: _356  and  _357
REMARK  133  A    between atoms: _367  and  _369
REMARK  134  A    between atoms: _369  and  _370
REMARK  135  A    between atoms: _369  and  _372
REMARK  136  A    between atoms: _372  and  _373
REMARK  137  A    between atoms: _378  and  _380
REMARK  138  A    between atoms: _380  and  _381
REMARK  139  A    between atoms: _380  and  _383
REMARK  140  A    between atoms: _383  and  _384
REMARK  141  A    between atoms: _384  and  _385
REMARK  142  A    between atoms: _385  and  _386
REMARK                            x       y       z     vdW  Elec       q    Type
REMARK                         _______ _______ _______ _____ _____    ______ ____
ROOT
ATOM      1  CG  TRP A   1      -1.430  -4.970  30.440  0.00  0.00    -0.002 A 
ATOM      2  CD1 TRP A   1      -2.760  -4.682  30.399  0.00  0.00    +0.068 A 
ATOM      3  NE1 TRP A   1      -3.022  -3.789  29.382  0.00  0.00    -0.352 N 
ATOM      4  HE1 TRP A   1      -3.961  -3.417  29.134  0.00  0.00    +0.166 HD
ATOM      5  CE2 TRP A   1      -1.847  -3.468  28.749  0.00  0.00    +0.056 A 
ATOM      6  CZ2 TRP A   1      -1.604  -2.608  27.668  0.00  0.00    +0.017 A 
ATOM      7  CH2 TRP A   1      -0.305  -2.479  27.240  0.00  0.00    +0.001 A 
ATOM      8  CZ3 TRP A   1       0.746  -3.183  27.863  0.00  0.00    +0.000 A 
ATOM      9  CE3 TRP A   1       0.499  -4.037  28.938  0.00  0.00    +0.001 A 
ATOM     10  CD2 TRP A   1      -0.817  -4.189  29.393  0.00  0.00    +0.013 A 
ENDROOT
BRANCH   1  11
ATOM     11  CB  TRP A   1      -0.759  -6.038  31.315  0.00  0.00    +0.053 C 
BRANCH  11  12
ATOM     12  CA  TRP A   1      -0.054  -5.572  32.590  0.00  0.00    +0.137 C 
BRANCH  12  13
ATOM     13  N   TRP A   1      -0.965  -5.250  33.670  0.00  0.00    -0.239 NA
ATOM     14  H   TRP A   1      -1.557  -4.397  33.611  0.00  0.00    +0.142 HD
ENDBRANCH  12  13
BRANCH  12  15
ATOM     15  C   TRP A   1       0.635  -4.273  32.340  0.00  0.00    +0.224 C 
ATOM     16  O   TRP A   1       0.012  -3.216  32.417  0.00  0.00    -0.287 OA
ENDBRANCH  12  15
ENDBRANCH  11  12
ENDBRANCH   1  11
TORSDOF 4
REMARK  Name = ../refined-set-2016/3ml5/3ml5_pocket.pdb
REMARK  142 active torsions:
REMARK  status: ('A' for Active; 'I' for Inactive)
REMARK    1  A    between atoms: _1  and  _5
REMARK    2  A    between atoms: _5  and  _6
REMARK    3  A    between atoms: _8  and  _10
REMARK    4  A    between atoms: _10  and  _11
REMARK    5  A    between atoms: _10  and  _13
REMARK    6  A    between atoms: _13  and  _14
REMARK    7  A    between atoms: _24  and  _26
REMARK    8  A    between atoms: _26  and  _27
REMARK    9  A    between atoms: _26  and  _29
REMARK   10  A    between atoms: _29  and  _30
REMARK   11  A    between atoms: _35  and  _36
REMARK   12  A    between atoms: _38  and  _40
REMARK   13  A    between atoms: _40  and  _41
REMARK   14  A    between atoms: _40  and  _43
REMARK   15  A    between atoms: _43  and  _44
REMARK   16  A    between atoms: _47  and  _48
REMARK   17  A    between atoms: _53  and  _55
REMARK   18  A    between atoms: _55  and  _56
REMARK   19  A    between atoms: _55  and  _58
REMARK   20  A    between atoms: _58  and  _59
REMARK   21  A    between atoms: _61  and  _63
REMARK   22  A    between atoms: _63  and  _64
REMARK   23  A    between atoms: _63  and  _66
REMARK   24  A    between atoms: _66  and  _67
REMARK   25  A    between atoms: _67  and  _68
REMARK   26  A    between atoms: _73  and  _75
REMARK   27  A    between atoms: _75  and  _76
REMARK   28  A    between atoms: _75  and  _78
REMARK   29  A    between atoms: _78  and  _79
REMARK   30  A    between atoms: _79  and  _80
REMARK   31  A    between atoms: _80  and  _81
REMARK   32  A    between atoms: _81  and  _82
REMARK   33  A    between atoms: _86  and  _88
REMARK   34  A    between atoms: _88  and  _89
REMARK   35  A    between atoms: _88  and  _91
REMARK   36  A    between atoms: _91  and  _92
REMARK   37  A    between atoms: _92  and  _93
REMARK   38  A    between atoms: _98  and  _100
REMARK   39  A    between atoms: _100  and  _101
REMARK   40  A    between atoms: _100  and  _103
REMARK   41  A    between atoms: _103  and  _104
REMARK   42  A    between atoms: _110  and  _112
REMARK   43  A    between atoms: _123  and  _126
REMARK   44  A    between atoms: _126  and  _127
REMARK   45  A    between atoms: _135  and  _136
REMARK   46  A    between atoms: _144  and  _146
REMARK   47  A    between atoms: _146  and  _147
REMARK   48  A    between atoms: _146  and  _149
REMARK   49  A    between atoms: _149  and  _150
REMARK   50  A    between atoms: _150  and  _151
REMARK   51  A    between atoms: _154  and  _156
REMARK   52  A    between atoms: _156  and  _157
REMARK   53  A    between atoms: _156  and  _159
REMARK   54  A    between atoms: _159  and  _160
REMARK   55  A    between atoms: _165  and  _167
REMARK   56  A    between atoms: _167  and  _168
REMARK   57  A    between atoms: _167  and  _170
REMARK   58  A    between atoms: _170  and  _171
REMARK   59  A    between atoms: _171  and  _172
REMARK   60  A    between atoms: _175  and  _177
REMARK   61  A    between atoms: _177  and  _178
REMARK   62  A    between atoms: _177  and  _180
REMARK   63  A    between atoms: _180  and  _181
REMARK   64  A    between atoms: _184  and  _186
REMARK   65  A    between atoms: _186  and  _187
REMARK   66  A    between atoms: _186  and  _189
REMARK   67  A    between atoms: _189  and  _190
REMARK   68  A    between atoms: _191  and  ZN_395
REMARK   69  A    between atoms: _195  and  _197
REMARK   70  A    between atoms: _197  and  _198
REMARK   71  A    between atoms: _197  and  _200
REMARK   72  A    between atoms: _200  and  _201
REMARK   73  A    between atoms: _204  and  _206
REMARK   74  A    between atoms: _206  and  _207
REMARK   75  A    between atoms: _206  and  _209
REMARK   76  A    between atoms: _212  and  _214
REMARK   77  A    between atoms: _214  and  _215
REMARK   78  A    between atoms: _214  and  _217
REMARK   79  A    between atoms: _217  and  _218
REMARK   80  A    between atoms: _223  and  _225
REMARK   81  A    between atoms: _225  and  _226
REMARK   82  A    between atoms: _225  and  _228
REMARK   83  A    between atoms: _228  and  _229
REMARK   84  A    between atoms: _235  and  _237
REMARK   85  A    between atoms: _237  and  _238
REMARK   86  A    between atoms: _240  and  _242
REMARK   87  A    between atoms: _242  and  _243
REMARK   88  A    between atoms: _246  and  _248
REMARK   89  A    between atoms: _248  and  _249
REMARK   90  A    between atoms: _248  and  _251
REMARK   91  A    between atoms: _251  and  _252
REMARK   92  A    between atoms: _255  and  _257
REMARK   93  A    between atoms: _257  and  _258
REMARK   94  A    between atoms: _261  and  _263
REMARK   95  A    between atoms: _263  and  _264
REMARK   96  A    between atoms: _263  and  _266
REMARK   97  A    between atoms: _269  and  _271
REMARK   98  A    between atoms: _271  and  _272
REMARK   99  A    between atoms: _271  and  _274
REMARK  100  A    between atoms: _277  and  _279
REMARK  101  A    between atoms: _279  and  _280
REMARK  102  A    between atoms: _279  and  _282
REMARK  103  A    between atoms: _282  and  _283
REMARK  104  A    between atoms: _285  and  _287
REMARK  105  A    between atoms: _287  and  _288
REMARK  106  A    between atoms: _287  and  _290
REMARK  107  A    between atoms: _290  and  _291
REMARK  108  A    between atoms: _294  and  _296
REMARK  109  A    between atoms: _296  and  _297
REMARK  110  A    between atoms: _296  and  _299
REMARK  111  A    between atoms: _299  and  _300
REMARK  112  A    between atoms: _303  and  _305
REMARK  113  A    between atoms: _305  and  _306
REMARK  114  A    between atoms: _305  and  _308
REMARK  115  A    between atoms: _308  and  _309
REMARK  116  A    between atoms: _313  and  _314
REMARK  117  A    between atoms: _320  and  _321
REMARK  118  A    between atoms: _326  and  _328
REMARK  119  A    between atoms: _328  and  _329
REMARK  120  A    between atoms: _328  and  _331
REMARK  121  A    between atoms: _331  and  _332
REMARK  122  A    between atoms: _335  and  _337
REMARK  123  A    between atoms: _337  and  _338
REMARK  124  A    between atoms: _337  and  _340
REMARK  125  A    between atoms: _340  and  _341
REMARK  126  A    between atoms: _343  and  _345
REMARK  127  A    between atoms: _345  and  _346
REMARK  128  A    between atoms: _345  and  _348
REMARK  129  A    between atoms: _351  and  _353
REMARK  130  A    between atoms: _353  and  _354
REMARK  131  A    between atoms: _353  and  _356
REMARK  132  A    between atoms: _356  and  _357
REMARK  133  A    between atoms: _367  and  _369
REMARK  134  A    between atoms: _369  and  _370
REMARK  135  A    between atoms: _369  and  _372
REMARK  136  A    between atoms: _372  and  _373
REMARK  137  A    between atoms: _378  and  _380
REMARK  138  A    between atoms: _380  and  _381
REMARK  139  A    between atoms: _380  and  _383
REMARK  140  A    between atoms: _383  and  _384
REMARK  141  A    between atoms: _384  and  _385
REMARK  142  A    between atoms: _385  and  _386
REMARK                            x       y       z     vdW  Elec       q    Type
REMARK                         _______ _______ _______ _____ _____    ______ ____
ROOT
ATOM      1  CG  TYR A   1       5.826  -2.311  28.423  0.00  0.00    -0.020 A 
ATOM      2  CD2 TYR A   1       4.750  -1.424  28.331  0.00  0.00    -0.001 A 
ATOM      3  CE2 TYR A   1       3.911  -1.427  27.215  0.00  0.00    +0.036 A 
ATOM      4  CZ  TYR A   1       4.147  -2.325  26.188  0.00  0.00    +0.134 A 
ATOM      5  CE1 TYR A   1       5.204  -3.217  26.262  0.00  0.00    +0.036 A 
ATOM      6  CD1 TYR A   1       6.036  -3.205  27.375  0.00  0.00    -0.001 A 
ENDROOT
BRANCH   4   7
ATOM      7  OH  TYR A   1       3.341  -2.331  25.080  0.00  0.00    -0.506 OA
ATOM      8  HH  TYR A   1       2.639  -1.641  25.181  0.00  0.00    +0.292 HD
ENDBRANCH   4   7
BRANCH   1   9
ATOM      9  CB  TYR A   1       6.741  -2.301  29.620  0.00  0.00    +0.051 C 
BRANCH   9  10
ATOM     10  CA  TYR A   1       6.324  -3.274  30.727  0.00  0.00    +0.137 C 
BRANCH  10  11
ATOM     11  N   TYR A   1       5.050  -2.880  31.313  0.00  0.00    -0.239 NA
ATOM     12  H   TYR A   1       4.989  -2.008  31.876  0.00  0.00    +0.142 HD
ENDBRANCH  10  11
BRANCH  10  13
ATOM     13  C   TYR A   1       7.418  -3.339  31.783  0.00  0.00    +0.224 C 
ATOM     14  O   TYR A   1       8.608  -3.316  31.461  0.00  0.00    -0.287 OA
ENDBRANCH  10  13
ENDBRANCH   9  10
ENDBRANCH   1   9
TORSDOF 5
REMARK  Name = ../refined-set-2016/3ml5/3ml5_pocket.pdb
REMARK  142 active torsions:
REMARK  status: ('A' for Active; 'I' for Inactive)
REMARK    1  A    between atoms: _1  and  _5
REMARK    2  A    between atoms: _5  and  _6
REMARK    3  A    between atoms: _8  and  _10
REMARK    4  A    between atoms: _10  and  _11
REMARK    5  A    between atoms: _10  and  _13
REMARK    6  A    between atoms: _13  and  _14
REMARK    7  A    between atoms: _24  and  _26
REMARK    8  A    between atoms: _26  and  _27
REMARK    9  A    between atoms: _26  and  _29
REMARK   10  A    between atoms: _29  and  _30
REMARK   11  A    between atoms: _35  and  _36
REMARK   12  A    between atoms: _38  and  _40
REMARK   13  A    between atoms: _40  and  _41
REMARK   14  A    between atoms: _40  and  _43
REMARK   15  A    between atoms: _43  and  _44
REMARK   16  A    between atoms: _47  and  _48
REMARK   17  A    between atoms: _53  and  _55
REMARK   18  A    between atoms: _55  and  _56
REMARK   19  A    between atoms: _55  and  _58
REMARK   20  A    between atoms: _58  and  _59
REMARK   21  A    between atoms: _61  and  _63
REMARK   22  A    between atoms: _63  and  _64
REMARK   23  A    between atoms: _63  and  _66
REMARK   24  A    between atoms: _66  and  _67
REMARK   25  A    between atoms: _67  and  _68
REMARK   26  A    between atoms: _73  and  _75
REMARK   27  A    between atoms: _75  and  _76
REMARK   28  A    between atoms: _75  and  _78
REMARK   29  A    between atoms: _78  and  _79
REMARK   30  A    between atoms: _79  and  _80
REMARK   31  A    between atoms: _80  and  _81
REMARK   32  A    between atoms: _81  and  _82
REMARK   33  A    between atoms: _86  and  _88
REMARK   34  A    between atoms: _88  and  _89
REMARK   35  A    between atoms: _88  and  _91
REMARK   36  A    between atoms: _91  and  _92
REMARK   37  A    between atoms: _92  and  _93
REMARK   38  A    between atoms: _98  and  _100
REMARK   39  A    between atoms: _100  and  _101
REMARK   40  A    between atoms: _100  and  _103
REMARK   41  A    between atoms: _103  and  _104
REMARK   42  A    between atoms: _110  and  _112
REMARK   43  A    between atoms: _123  and  _126
REMARK   44  A    between atoms: _126  and  _127
REMARK   45  A    between atoms: _135  and  _136
REMARK   46  A    between atoms: _144  and  _146
REMARK   47  A    between atoms: _146  and  _147
REMARK   48  A    between atoms: _146  and  _149
REMARK   49  A    between atoms: _149  and  _150
REMARK   50  A    between atoms: _150  and  _151
REMARK   51  A    between atoms: _154  and  _156
REMARK   52  A    between atoms: _156  and  _157
REMARK   53  A    between atoms: _156  and  _159
REMARK   54  A    between atoms: _159  and  _160
REMARK   55  A    between atoms: _165  and  _167
REMARK   56  A    between atoms: _167  and  _168
REMARK   57  A    between atoms: _167  and  _170
REMARK   58  A    between atoms: _170  and  _171
REMARK   59  A    between atoms: _171  and  _172
REMARK   60  A    between atoms: _175  and  _177
REMARK   61  A    between atoms: _177  and  _178
REMARK   62  A    between atoms: _177  and  _180
REMARK   63  A    between atoms: _180  and  _181
REMARK   64  A    between atoms: _184  and  _186
REMARK   65  A    between atoms: _186  and  _187
REMARK   66  A    between atoms: _186  and  _189
REMARK   67  A    between atoms: _189  and  _190
REMARK   68  A    between atoms: _191  and  ZN_395
REMARK   69  A    between atoms: _195  and  _197
REMARK   70  A    between atoms: _197  and  _198
REMARK   71  A    between atoms: _197  and  _200
REMARK   72  A    between atoms: _200  and  _201
REMARK   73  A    between atoms: _204  and  _206
REMARK   74  A    between atoms: _206  and  _207
REMARK   75  A    between atoms: _206  and  _209
REMARK   76  A    between atoms: _212  and  _214
REMARK   77  A    between atoms: _214  and  _215
REMARK   78  A    between atoms: _214  and  _217
REMARK   79  A    between atoms: _217  and  _218
REMARK   80  A    between atoms: _223  and  _225
REMARK   81  A    between atoms: _225  and  _226
REMARK   82  A    between atoms: _225  and  _228
REMARK   83  A    between atoms: _228  and  _229
REMARK   84  A    between atoms: _235  and  _237
REMARK   85  A    between atoms: _237  and  _238
REMARK   86  A    between atoms: _240  and  _242
REMARK   87  A    between atoms: _242  and  _243
REMARK   88  A    between atoms: _246  and  _248
REMARK   89  A    between atoms: _248  and  _249
REMARK   90  A    between atoms: _248  and  _251
REMARK   91  A    between atoms: _251  and  _252
REMARK   92  A    between atoms: _255  and  _257
REMARK   93  A    between atoms: _257  and  _258
REMARK   94  A    between atoms: _261  and  _263
REMARK   95  A    between atoms: _263  and  _264
REMARK   96  A    between atoms: _263  and  _266
REMARK   97  A    between atoms: _269  and  _271
REMARK   98  A    between atoms: _271  and  _272
REMARK   99  A    between atoms: _271  and  _274
REMARK  100  A    between atoms: _277  and  _279
REMARK  101  A    between atoms: _279  and  _280
REMARK  102  A    between atoms: _279  and  _282
REMARK  103  A    between atoms: _282  and  _283
REMARK  104  A    between atoms: _285  and  _287
REMARK  105  A    between atoms: _287  and  _288
REMARK  106  A    between atoms: _287  and  _290
REMARK  107  A    between atoms: _290  and  _291
REMARK  108  A    between atoms: _294  and  _296
REMARK  109  A    between atoms: _296  and  _297
REMARK  110  A    between atoms: _296  and  _299
REMARK  111  A    between atoms: _299  and  _300
REMARK  112  A    between atoms: _303  and  _305
REMARK  113  A    between atoms: _305  and  _306
REMARK  114  A    between atoms: _305  and  _308
REMARK  115  A    between atoms: _308  and  _309
REMARK  116  A    between atoms: _313  and  _314
REMARK  117  A    between atoms: _320  and  _321
REMARK  118  A    between atoms: _326  and  _328
REMARK  119  A    between atoms: _328  and  _329
REMARK  120  A    between atoms: _328  and  _331
REMARK  121  A    between atoms: _331  and  _332
REMARK  122  A    between atoms: _335  and  _337
REMARK  123  A    between atoms: _337  and  _338
REMARK  124  A    between atoms: _337  and  _340
REMARK  125  A    between atoms: _340  and  _341
REMARK  126  A    between atoms: _343  and  _345
REMARK  127  A    between atoms: _345  and  _346
REMARK  128  A    between atoms: _345  and  _348
REMARK  129  A    between atoms: _351  and  _353
REMARK  130  A    between atoms: _353  and  _354
REMARK  131  A    between atoms: _353  and  _356
REMARK  132  A    between atoms: _356  and  _357
REMARK  133  A    between atoms: _367  and  _369
REMARK  134  A    between atoms: _369  and  _370
REMARK  135  A    between atoms: _369  and  _372
REMARK  136  A    between atoms: _372  and  _373
REMARK  137  A    between atoms: _378  and  _380
REMARK  138  A    between atoms: _380  and  _381
REMARK  139  A    between atoms: _380  and  _383
REMARK  140  A    between atoms: _383  and  _384
REMARK  141  A    between atoms: _384  and  _385
REMARK  142  A    between atoms: _385  and  _386
REMARK                            x       y       z     vdW  Elec       q    Type
REMARK                         _______ _______ _______ _____ _____    ______ ____
ROOT
ATOM      1  C   SER A   1       3.420  -9.835  18.213  0.00  0.00    +0.244 C 
ATOM      2  O   SER A   1       2.953  -9.845  19.355  0.00  0.00    -0.273 OA
ATOM      3  N   PRO A   2       4.537  -9.153  17.905  0.00  0.00    -0.273 N 
ATOM      4  CD  PRO A   2       5.282  -8.367  18.907  0.00  0.00    +0.094 C 
ATOM      5  CG  PRO A   2       6.530  -7.936  18.144  0.00  0.00    +0.024 C 
ATOM      6  CB  PRO A   2       6.008  -7.777  16.731  0.00  0.00    +0.030 C 
ATOM      7  CA  PRO A   2       5.170  -9.040  16.584  0.00  0.00    +0.140 C 
ENDROOT
BRANCH   7   8
ATOM      8  C   PRO A   2       6.036 -10.250  16.234  0.00  0.00    +0.227 C 
ATOM      9  O   PRO A   2       6.120 -11.209  17.002  0.00  0.00    -0.286 OA
ENDBRANCH   7   8
BRANCH   1  10
ATOM     10  CA  SER A   1       2.710 -10.567  17.081  0.00  0.00    +0.175 C 
BRANCH  10  11
ATOM     11  N   SER A   1       1.879 -11.637  17.632  0.00  0.00    -0.236 NA
ATOM     12  H   SER A   1       1.194 -11.397  18.377  0.00  0.00    +0.142 HD
ENDBRANCH  10  11
BRANCH  10  13
ATOM     13  CB  SER A   1       1.841  -9.579  16.302  0.00  0.00    +0.163 C 
BRANCH  13  14
ATOM     14  OG  SER A   1       1.235 -10.201  15.177  0.00  0.00    -0.380 OA
ATOM     15  H   SER A   1       1.939 -10.546  14.573  0.00  0.00    +0.211 HD
ENDBRANCH  13  14
ENDBRANCH  10  13
ENDBRANCH   1  10
TORSDOF 5
REMARK  Name = ../refined-set-2016/3ml5/3ml5_pocket.pdb
REMARK  142 active torsions:
REMARK  status: ('A' for Active; 'I' for Inactive)
REMARK    1  A    between atoms: _1  and  _5
REMARK    2  A    between atoms: _5  and  _6
REMARK    3  A    between atoms: _8  and  _10
REMARK    4  A    between atoms: _10  and  _11
REMARK    5  A    between atoms: _10  and  _13
REMARK    6  A    between atoms: _13  and  _14
REMARK    7  A    between atoms: _24  and  _26
REMARK    8  A    between atoms: _26  and  _27
REMARK    9  A    between atoms: _26  and  _29
REMARK   10  A    between atoms: _29  and  _30
REMARK   11  A    between atoms: _35  and  _36
REMARK   12  A    between atoms: _38  and  _40
REMARK   13  A    between atoms: _40  and  _41
REMARK   14  A    between atoms: _40  and  _43
REMARK   15  A    between atoms: _43  and  _44
REMARK   16  A    between atoms: _47  and  _48
REMARK   17  A    between atoms: _53  and  _55
REMARK   18  A    between atoms: _55  and  _56
REMARK   19  A    between atoms: _55  and  _58
REMARK   20  A    between atoms: _58  and  _59
REMARK   21  A    between atoms: _61  and  _63
REMARK   22  A    between atoms: _63  and  _64
REMARK   23  A    between atoms: _63  and  _66
REMARK   24  A    between atoms: _66  and  _67
REMARK   25  A    between atoms: _67  and  _68
REMARK   26  A    between atoms: _73  and  _75
REMARK   27  A    between atoms: _75  and  _76
REMARK   28  A    between atoms: _75  and  _78
REMARK   29  A    between atoms: _78  and  _79
REMARK   30  A    between atoms: _79  and  _80
REMARK   31  A    between atoms: _80  and  _81
REMARK   32  A    between atoms: _81  and  _82
REMARK   33  A    between atoms: _86  and  _88
REMARK   34  A    between atoms: _88  and  _89
REMARK   35  A    between atoms: _88  and  _91
REMARK   36  A    between atoms: _91  and  _92
REMARK   37  A    between atoms: _92  and  _93
REMARK   38  A    between atoms: _98  and  _100
REMARK   39  A    between atoms: _100  and  _101
REMARK   40  A    between atoms: _100  and  _103
REMARK   41  A    between atoms: _103  and  _104
REMARK   42  A    between atoms: _110  and  _112
REMARK   43  A    between atoms: _123  and  _126
REMARK   44  A    between atoms: _126  and  _127
REMARK   45  A    between atoms: _135  and  _136
REMARK   46  A    between atoms: _144  and  _146
REMARK   47  A    between atoms: _146  and  _147
REMARK   48  A    between atoms: _146  and  _149
REMARK   49  A    between atoms: _149  and  _150
REMARK   50  A    between atoms: _150  and  _151
REMARK   51  A    between atoms: _154  and  _156
REMARK   52  A    between atoms: _156  and  _157
REMARK   53  A    between atoms: _156  and  _159
REMARK   54  A    between atoms: _159  and  _160
REMARK   55  A    between atoms: _165  and  _167
REMARK   56  A    between atoms: _167  and  _168
REMARK   57  A    between atoms: _167  and  _170
REMARK   58  A    between atoms: _170  and  _171
REMARK   59  A    between atoms: _171  and  _172
REMARK   60  A    between atoms: _175  and  _177
REMARK   61  A    between atoms: _177  and  _178
REMARK   62  A    between atoms: _177  and  _180
REMARK   63  A    between atoms: _180  and  _181
REMARK   64  A    between atoms: _184  and  _186
REMARK   65  A    between atoms: _186  and  _187
REMARK   66  A    between atoms: _186  and  _189
REMARK   67  A    between atoms: _189  and  _190
REMARK   68  A    between atoms: _191  and  ZN_395
REMARK   69  A    between atoms: _195  and  _197
REMARK   70  A    between atoms: _197  and  _198
REMARK   71  A    between atoms: _197  and  _200
REMARK   72  A    between atoms: _200  and  _201
REMARK   73  A    between atoms: _204  and  _206
REMARK   74  A    between atoms: _206  and  _207
REMARK   75  A    between atoms: _206  and  _209
REMARK   76  A    between atoms: _212  and  _214
REMARK   77  A    between atoms: _214  and  _215
REMARK   78  A    between atoms: _214  and  _217
REMARK   79  A    between atoms: _217  and  _218
REMARK   80  A    between atoms: _223  and  _225
REMARK   81  A    between atoms: _225  and  _226
REMARK   82  A    between atoms: _225  and  _228
REMARK   83  A    between atoms: _228  and  _229
REMARK   84  A    between atoms: _235  and  _237
REMARK   85  A    between atoms: _237  and  _238
REMARK   86  A    between atoms: _240  and  _242
REMARK   87  A    between atoms: _242  and  _243
REMARK   88  A    between atoms: _246  and  _248
REMARK   89  A    between atoms: _248  and  _249
REMARK   90  A    between atoms: _248  and  _251
REMARK   91  A    between atoms: _251  and  _252
REMARK   92  A    between atoms: _255  and  _257
REMARK   93  A    between atoms: _257  and  _258
REMARK   94  A    between atoms: _261  and  _263
REMARK   95  A    between atoms: _263  and  _264
REMARK   96  A    between atoms: _263  and  _266
REMARK   97  A    between atoms: _269  and  _271
REMARK   98  A    between atoms: _271  and  _272
REMARK   99  A    between atoms: _271  and  _274
REMARK  100  A    between atoms: _277  and  _279
REMARK  101  A    between atoms: _279  and  _280
REMARK  102  A    between atoms: _279  and  _282
REMARK  103  A    between atoms: _282  and  _283
REMARK  104  A    between atoms: _285  and  _287
REMARK  105  A    between atoms: _287  and  _288
REMARK  106  A    between atoms: _287  and  _290
REMARK  107  A    between atoms: _290  and  _291
REMARK  108  A    between atoms: _294  and  _296
REMARK  109  A    between atoms: _296  and  _297
REMARK  110  A    between atoms: _296  and  _299
REMARK  111  A    between atoms: _299  and  _300
REMARK  112  A    between atoms: _303  and  _305
REMARK  113  A    between atoms: _305  and  _306
REMARK  114  A    between atoms: _305  and  _308
REMARK  115  A    between atoms: _308  and  _309
REMARK  116  A    between atoms: _313  and  _314
REMARK  117  A    between atoms: _320  and  _321
REMARK  118  A    between atoms: _326  and  _328
REMARK  119  A    between atoms: _328  and  _329
REMARK  120  A    between atoms: _328  and  _331
REMARK  121  A    between atoms: _331  and  _332
REMARK  122  A    between atoms: _335  and  _337
REMARK  123  A    between atoms: _337  and  _338
REMARK  124  A    between atoms: _337  and  _340
REMARK  125  A    between atoms: _340  and  _341
REMARK  126  A    between atoms: _343  and  _345
REMARK  127  A    between atoms: _345  and  _346
REMARK  128  A    between atoms: _345  and  _348
REMARK  129  A    between atoms: _351  and  _353
REMARK  130  A    between atoms: _353  and  _354
REMARK  131  A    between atoms: _353  and  _356
REMARK  132  A    between atoms: _356  and  _357
REMARK  133  A    between atoms: _367  and  _369
REMARK  134  A    between atoms: _369  and  _370
REMARK  135  A    between atoms: _369  and  _372
REMARK  136  A    between atoms: _372  and  _373
REMARK  137  A    between atoms: _378  and  _380
REMARK  138  A    between atoms: _380  and  _381
REMARK  139  A    between atoms: _380  and  _383
REMARK  140  A    between atoms: _383  and  _384
REMARK  141  A    between atoms: _384  and  _385
REMARK  142  A    between atoms: _385  and  _386
REMARK                            x       y       z     vdW  Elec       q    Type
REMARK                         _______ _______ _______ _____ _____    ______ ____
ROOT
ATOM      1  CA  SER A   1       2.147   4.816  24.884  0.00  0.00    +0.163 C 
ENDROOT
BRANCH   1   2
ATOM      2  N   SER A   1       1.605   4.120  26.046  0.00  0.00    -0.237 NA
ATOM      3  H   SER A   1       0.782   4.525  26.535  0.00  0.00    +0.142 HD
ENDBRANCH   1   2
BRANCH   1   4
ATOM      4  CB  SER A   1       1.433   6.168  24.750  0.00  0.00    +0.227 C 
ATOM      5  OG  SER A   1       0.560   6.499  25.557  0.00  0.00    -0.287 OA
ENDBRANCH   1   4
BRANCH   1   6
ATOM      6  C   SER A   1       1.923   3.958  23.619  0.00  0.00    +0.162 C 
BRANCH   6   7
ATOM      7  O   SER A   1       2.295   4.609  22.410  0.00  0.00    -0.380 OA
ATOM      8  H   SER A   1       3.257   4.839  22.443  0.00  0.00    +0.211 HD
ENDBRANCH   6   7
ENDBRANCH   1   6
TORSDOF 4
REMARK  Name = ../refined-set-2016/3ml5/3ml5_pocket.pdb
REMARK  142 active torsions:
REMARK  status: ('A' for Active; 'I' for Inactive)
REMARK    1  A    between atoms: _1  and  _5
REMARK    2  A    between atoms: _5  and  _6
REMARK    3  A    between atoms: _8  and  _10
REMARK    4  A    between atoms: _10  and  _11
REMARK    5  A    between atoms: _10  and  _13
REMARK    6  A    between atoms: _13  and  _14
REMARK    7  A    between atoms: _24  and  _26
REMARK    8  A    between atoms: _26  and  _27
REMARK    9  A    between atoms: _26  and  _29
REMARK   10  A    between atoms: _29  and  _30
REMARK   11  A    between atoms: _35  and  _36
REMARK   12  A    between atoms: _38  and  _40
REMARK   13  A    between atoms: _40  and  _41
REMARK   14  A    between atoms: _40  and  _43
REMARK   15  A    between atoms: _43  and  _44
REMARK   16  A    between atoms: _47  and  _48
REMARK   17  A    between atoms: _53  and  _55
REMARK   18  A    between atoms: _55  and  _56
REMARK   19  A    between atoms: _55  and  _58
REMARK   20  A    between atoms: _58  and  _59
REMARK   21  A    between atoms: _61  and  _63
REMARK   22  A    between atoms: _63  and  _64
REMARK   23  A    between atoms: _63  and  _66
REMARK   24  A    between atoms: _66  and  _67
REMARK   25  A    between atoms: _67  and  _68
REMARK   26  A    between atoms: _73  and  _75
REMARK   27  A    between atoms: _75  and  _76
REMARK   28  A    between atoms: _75  and  _78
REMARK   29  A    between atoms: _78  and  _79
REMARK   30  A    between atoms: _79  and  _80
REMARK   31  A    between atoms: _80  and  _81
REMARK   32  A    between atoms: _81  and  _82
REMARK   33  A    between atoms: _86  and  _88
REMARK   34  A    between atoms: _88  and  _89
REMARK   35  A    between atoms: _88  and  _91
REMARK   36  A    between atoms: _91  and  _92
REMARK   37  A    between atoms: _92  and  _93
REMARK   38  A    between atoms: _98  and  _100
REMARK   39  A    between atoms: _100  and  _101
REMARK   40  A    between atoms: _100  and  _103
REMARK   41  A    between atoms: _103  and  _104
REMARK   42  A    between atoms: _110  and  _112
REMARK   43  A    between atoms: _123  and  _126
REMARK   44  A    between atoms: _126  and  _127
REMARK   45  A    between atoms: _135  and  _136
REMARK   46  A    between atoms: _144  and  _146
REMARK   47  A    between atoms: _146  and  _147
REMARK   48  A    between atoms: _146  and  _149
REMARK   49  A    between atoms: _149  and  _150
REMARK   50  A    between atoms: _150  and  _151
REMARK   51  A    between atoms: _154  and  _156
REMARK   52  A    between atoms: _156  and  _157
REMARK   53  A    between atoms: _156  and  _159
REMARK   54  A    between atoms: _159  and  _160
REMARK   55  A    between atoms: _165  and  _167
REMARK   56  A    between atoms: _167  and  _168
REMARK   57  A    between atoms: _167  and  _170
REMARK   58  A    between atoms: _170  and  _171
REMARK   59  A    between atoms: _171  and  _172
REMARK   60  A    between atoms: _175  and  _177
REMARK   61  A    between atoms: _177  and  _178
REMARK   62  A    between atoms: _177  and  _180
REMARK   63  A    between atoms: _180  and  _181
REMARK   64  A    between atoms: _184  and  _186
REMARK   65  A    between atoms: _186  and  _187
REMARK   66  A    between atoms: _186  and  _189
REMARK   67  A    between atoms: _189  and  _190
REMARK   68  A    between atoms: _191  and  ZN_395
REMARK   69  A    between atoms: _195  and  _197
REMARK   70  A    between atoms: _197  and  _198
REMARK   71  A    between atoms: _197  and  _200
REMARK   72  A    between atoms: _200  and  _201
REMARK   73  A    between atoms: _204  and  _206
REMARK   74  A    between atoms: _206  and  _207
REMARK   75  A    between atoms: _206  and  _209
REMARK   76  A    between atoms: _212  and  _214
REMARK   77  A    between atoms: _214  and  _215
REMARK   78  A    between atoms: _214  and  _217
REMARK   79  A    between atoms: _217  and  _218
REMARK   80  A    between atoms: _223  and  _225
REMARK   81  A    between atoms: _225  and  _226
REMARK   82  A    between atoms: _225  and  _228
REMARK   83  A    between atoms: _228  and  _229
REMARK   84  A    between atoms: _235  and  _237
REMARK   85  A    between atoms: _237  and  _238
REMARK   86  A    between atoms: _240  and  _242
REMARK   87  A    between atoms: _242  and  _243
REMARK   88  A    between atoms: _246  and  _248
REMARK   89  A    between atoms: _248  and  _249
REMARK   90  A    between atoms: _248  and  _251
REMARK   91  A    between atoms: _251  and  _252
REMARK   92  A    between atoms: _255  and  _257
REMARK   93  A    between atoms: _257  and  _258
REMARK   94  A    between atoms: _261  and  _263
REMARK   95  A    between atoms: _263  and  _264
REMARK   96  A    between atoms: _263  and  _266
REMARK   97  A    between atoms: _269  and  _271
REMARK   98  A    between atoms: _271  and  _272
REMARK   99  A    between atoms: _271  and  _274
REMARK  100  A    between atoms: _277  and  _279
REMARK  101  A    between atoms: _279  and  _280
REMARK  102  A    between atoms: _279  and  _282
REMARK  103  A    between atoms: _282  and  _283
REMARK  104  A    between atoms: _285  and  _287
REMARK  105  A    between atoms: _287  and  _288
REMARK  106  A    between atoms: _287  and  _290
REMARK  107  A    between atoms: _290  and  _291
REMARK  108  A    between atoms: _294  and  _296
REMARK  109  A    between atoms: _296  and  _297
REMARK  110  A    between atoms: _296  and  _299
REMARK  111  A    between atoms: _299  and  _300
REMARK  112  A    between atoms: _303  and  _305
REMARK  113  A    between atoms: _305  and  _306
REMARK  114  A    between atoms: _305  and  _308
REMARK  115  A    between atoms: _308  and  _309
REMARK  116  A    between atoms: _313  and  _314
REMARK  117  A    between atoms: _320  and  _321
REMARK  118  A    between atoms: _326  and  _328
REMARK  119  A    between atoms: _328  and  _329
REMARK  120  A    between atoms: _328  and  _331
REMARK  121  A    between atoms: _331  and  _332
REMARK  122  A    between atoms: _335  and  _337
REMARK  123  A    between atoms: _337  and  _338
REMARK  124  A    between atoms: _337  and  _340
REMARK  125  A    between atoms: _340  and  _341
REMARK  126  A    between atoms: _343  and  _345
REMARK  127  A    between atoms: _345  and  _346
REMARK  128  A    between atoms: _345  and  _348
REMARK  129  A    between atoms: _351  and  _353
REMARK  130  A    between atoms: _353  and  _354
REMARK  131  A    between atoms: _353  and  _356
REMARK  132  A    between atoms: _356  and  _357
REMARK  133  A    between atoms: _367  and  _369
REMARK  134  A    between atoms: _369  and  _370
REMARK  135  A    between atoms: _369  and  _372
REMARK  136  A    between atoms: _372  and  _373
REMARK  137  A    between atoms: _378  and  _380
REMARK  138  A    between atoms: _380  and  _381
REMARK  139  A    between atoms: _380  and  _383
REMARK  140  A    between atoms: _383  and  _384
REMARK  141  A    between atoms: _384  and  _385
REMARK  142  A    between atoms: _385  and  _386
REMARK                            x       y       z     vdW  Elec       q    Type
REMARK                         _______ _______ _______ _____ _____    ______ ____
ROOT
ATOM      1  CB  GLN A   1      -2.797   6.685  21.791  0.00  0.00    +0.035 C 
ENDROOT
BRANCH   1   2
ATOM      2  CA  GLN A   1      -1.903   7.832  21.286  0.00  0.00    +0.134 C 
BRANCH   2   3
ATOM      3  N   GLN A   1      -0.982   8.187  22.358  0.00  0.00    -0.239 NA
ATOM      4  H   GLN A   1      -1.345   8.677  23.201  0.00  0.00    +0.142 HD
ENDBRANCH   2   3
BRANCH   2   5
ATOM      5  C   GLN A   1      -2.762   8.979  20.757  0.00  0.00    +0.224 C 
ATOM      6  O   GLN A   1      -3.228   9.831  21.518  0.00  0.00    -0.287 OA
ENDBRANCH   2   5
ENDBRANCH   1   2
BRANCH   1   7
ATOM      7  CG  GLN A   1      -3.953   6.284  20.891  0.00  0.00    +0.087 C 
BRANCH   7   8
ATOM      8  CD  GLN A   1      -4.723   5.082  21.438  0.00  0.00    +0.219 C 
ATOM      9  NE2 GLN A   1      -4.005   4.126  22.019  0.00  0.00    -0.329 N 
ATOM     10 HE21 GLN A   1      -4.476   3.282  22.403  0.00  0.00    +0.145 HD
ATOM     11 HE22 GLN A   1      -2.972   4.222  22.090  0.00  0.00    +0.145 HD
ATOM     12  OE1 GLN A   1      -5.949   5.017  21.329  0.00  0.00    -0.275 OA
ENDBRANCH   7   8
ENDBRANCH   1   7
TORSDOF 5
REMARK  Name = ../refined-set-2016/3ml5/3ml5_pocket.pdb
REMARK  142 active torsions:
REMARK  status: ('A' for Active; 'I' for Inactive)
REMARK    1  A    between atoms: _1  and  _5
REMARK    2  A    between atoms: _5  and  _6
REMARK    3  A    between atoms: _8  and  _10
REMARK    4  A    between atoms: _10  and  _11
REMARK    5  A    between atoms: _10  and  _13
REMARK    6  A    between atoms: _13  and  _14
REMARK    7  A    between atoms: _24  and  _26
REMARK    8  A    between atoms: _26  and  _27
REMARK    9  A    between atoms: _26  and  _29
REMARK   10  A    between atoms: _29  and  _30
REMARK   11  A    between atoms: _35  and  _36
REMARK   12  A    between atoms: _38  and  _40
REMARK   13  A    between atoms: _40  and  _41
REMARK   14  A    between atoms: _40  and  _43
REMARK   15  A    between atoms: _43  and  _44
REMARK   16  A    between atoms: _47  and  _48
REMARK   17  A    between atoms: _53  and  _55
REMARK   18  A    between atoms: _55  and  _56
REMARK   19  A    between atoms: _55  and  _58
REMARK   20  A    between atoms: _58  and  _59
REMARK   21  A    between atoms: _61  and  _63
REMARK   22  A    between atoms: _63  and  _64
REMARK   23  A    between atoms: _63  and  _66
REMARK   24  A    between atoms: _66  and  _67
REMARK   25  A    between atoms: _67  and  _68
REMARK   26  A    between atoms: _73  and  _75
REMARK   27  A    between atoms: _75  and  _76
REMARK   28  A    between atoms: _75  and  _78
REMARK   29  A    between atoms: _78  and  _79
REMARK   30  A    between atoms: _79  and  _80
REMARK   31  A    between atoms: _80  and  _81
REMARK   32  A    between atoms: _81  and  _82
REMARK   33  A    between atoms: _86  and  _88
REMARK   34  A    between atoms: _88  and  _89
REMARK   35  A    between atoms: _88  and  _91
REMARK   36  A    between atoms: _91  and  _92
REMARK   37  A    between atoms: _92  and  _93
REMARK   38  A    between atoms: _98  and  _100
REMARK   39  A    between atoms: _100  and  _101
REMARK   40  A    between atoms: _100  and  _103
REMARK   41  A    between atoms: _103  and  _104
REMARK   42  A    between atoms: _110  and  _112
REMARK   43  A    between atoms: _123  and  _126
REMARK   44  A    between atoms: _126  and  _127
REMARK   45  A    between atoms: _135  and  _136
REMARK   46  A    between atoms: _144  and  _146
REMARK   47  A    between atoms: _146  and  _147
REMARK   48  A    between atoms: _146  and  _149
REMARK   49  A    between atoms: _149  and  _150
REMARK   50  A    between atoms: _150  and  _151
REMARK   51  A    between atoms: _154  and  _156
REMARK   52  A    between atoms: _156  and  _157
REMARK   53  A    between atoms: _156  and  _159
REMARK   54  A    between atoms: _159  and  _160
REMARK   55  A    between atoms: _165  and  _167
REMARK   56  A    between atoms: _167  and  _168
REMARK   57  A    between atoms: _167  and  _170
REMARK   58  A    between atoms: _170  and  _171
REMARK   59  A    between atoms: _171  and  _172
REMARK   60  A    between atoms: _175  and  _177
REMARK   61  A    between atoms: _177  and  _178
REMARK   62  A    between atoms: _177  and  _180
REMARK   63  A    between atoms: _180  and  _181
REMARK   64  A    between atoms: _184  and  _186
REMARK   65  A    between atoms: _186  and  _187
REMARK   66  A    between atoms: _186  and  _189
REMARK   67  A    between atoms: _189  and  _190
REMARK   68  A    between atoms: _191  and  ZN_395
REMARK   69  A    between atoms: _195  and  _197
REMARK   70  A    between atoms: _197  and  _198
REMARK   71  A    between atoms: _197  and  _200
REMARK   72  A    between atoms: _200  and  _201
REMARK   73  A    between atoms: _204  and  _206
REMARK   74  A    between atoms: _206  and  _207
REMARK   75  A    between atoms: _206  and  _209
REMARK   76  A    between atoms: _212  and  _214
REMARK   77  A    between atoms: _214  and  _215
REMARK   78  A    between atoms: _214  and  _217
REMARK   79  A    between atoms: _217  and  _218
REMARK   80  A    between atoms: _223  and  _225
REMARK   81  A    between atoms: _225  and  _226
REMARK   82  A    between atoms: _225  and  _228
REMARK   83  A    between atoms: _228  and  _229
REMARK   84  A    between atoms: _235  and  _237
REMARK   85  A    between atoms: _237  and  _238
REMARK   86  A    between atoms: _240  and  _242
REMARK   87  A    between atoms: _242  and  _243
REMARK   88  A    between atoms: _246  and  _248
REMARK   89  A    between atoms: _248  and  _249
REMARK   90  A    between atoms: _248  and  _251
REMARK   91  A    between atoms: _251  and  _252
REMARK   92  A    between atoms: _255  and  _257
REMARK   93  A    between atoms: _257  and  _258
REMARK   94  A    between atoms: _261  and  _263
REMARK   95  A    between atoms: _263  and  _264
REMARK   96  A    between atoms: _263  and  _266
REMARK   97  A    between atoms: _269  and  _271
REMARK   98  A    between atoms: _271  and  _272
REMARK   99  A    between atoms: _271  and  _274
REMARK  100  A    between atoms: _277  and  _279
REMARK  101  A    between atoms: _279  and  _280
REMARK  102  A    between atoms: _279  and  _282
REMARK  103  A    between atoms: _282  and  _283
REMARK  104  A    between atoms: _285  and  _287
REMARK  105  A    between atoms: _287  and  _288
REMARK  106  A    between atoms: _287  and  _290
REMARK  107  A    between atoms: _290  and  _291
REMARK  108  A    between atoms: _294  and  _296
REMARK  109  A    between atoms: _296  and  _297
REMARK  110  A    between atoms: _296  and  _299
REMARK  111  A    between atoms: _299  and  _300
REMARK  112  A    between atoms: _303  and  _305
REMARK  113  A    between atoms: _305  and  _306
REMARK  114  A    between atoms: _305  and  _308
REMARK  115  A    between atoms: _308  and  _309
REMARK  116  A    between atoms: _313  and  _314
REMARK  117  A    between atoms: _320  and  _321
REMARK  118  A    between atoms: _326  and  _328
REMARK  119  A    between atoms: _328  and  _329
REMARK  120  A    between atoms: _328  and  _331
REMARK  121  A    between atoms: _331  and  _332
REMARK  122  A    between atoms: _335  and  _337
REMARK  123  A    between atoms: _337  and  _338
REMARK  124  A    between atoms: _337  and  _340
REMARK  125  A    between atoms: _340  and  _341
REMARK  126  A    between atoms: _343  and  _345
REMARK  127  A    between atoms: _345  and  _346
REMARK  128  A    between atoms: _345  and  _348
REMARK  129  A    between atoms: _351  and  _353
REMARK  130  A    between atoms: _353  and  _354
REMARK  131  A    between atoms: _353  and  _356
REMARK  132  A    between atoms: _356  and  _357
REMARK  133  A    between atoms: _367  and  _369
REMARK  134  A    between atoms: _369  and  _370
REMARK  135  A    between atoms: _369  and  _372
REMARK  136  A    between atoms: _372  and  _373
REMARK  137  A    between atoms: _378  and  _380
REMARK  138  A    between atoms: _380  and  _381
REMARK  139  A    between atoms: _380  and  _383
REMARK  140  A    between atoms: _383  and  _384
REMARK  141  A    between atoms: _384  and  _385
REMARK  142  A    between atoms: _385  and  _386
REMARK                            x       y       z     vdW  Elec       q    Type
REMARK                         _______ _______ _______ _____ _____    ______ ____
ROOT
ATOM      1  C   UNK A   4       0.493   5.109  18.639  0.00  0.00    +0.000 C 
ATOM      2  C   UNK A   4      -0.046   4.294  19.816  0.00  0.00    +0.000 C 
ATOM      3  C   UNK A   4      -0.235   2.844  19.498  0.00  0.00    +0.000 A 
ATOM      4  C   UNK A   4       0.592   1.783  19.653  0.00  0.00    +0.000 A 
ATOM      5  N   UNK A   4      -0.051   0.688  19.130  0.00  0.00    +0.000 N 
ATOM      6 ZN   UNK A   6       1.215  -0.903  18.853  0.00  0.00    +0.000 Zn
ATOM      7  N   UNK A   6       2.910  -0.698  19.962  0.00  0.00    +0.000 N 
ATOM      8  C   UNK A   6       3.179  -0.909  21.238  0.00  0.00    +0.000 A 
ATOM      9  N   UNK A   6       4.431  -0.553  21.464  0.00  0.00    +0.000 NA
ATOM     10  C   UNK A   6       4.995  -0.096  20.291  0.00  0.00    +0.000 A 
ATOM     11  C   UNK A   6       6.412   0.383  20.203  0.00  0.00    +0.000 C 
ATOM     12  C   UNK A   6       6.597   1.849  20.610  0.00  0.00    +0.000 C 
ATOM     13  N   UNK A   6       5.870   2.734  19.707  0.00  0.00    +0.000 N 
ATOM     14  C   VAL A   5       4.764   3.383  20.059  0.00  0.00    +0.000 C 
ATOM     15  O   VAL A   5       4.233   3.274  21.165  0.00  0.00    +0.000 OA
ATOM     16  CA  VAL A   5       4.196   4.314  18.994  0.00  0.00    +0.000 C 
ATOM     17  N   VAL A   5       2.816   4.719  19.228  0.00  0.00    +0.000 N 
ATOM     18  H   VAL A   5       2.549   5.095  20.160  0.00  0.00    +0.000 HD
ATOM     19  H   UNK A   6       6.234   2.864  18.741  0.00  0.00    +0.000 HD
ATOM     20  C   UNK A   6       4.028  -0.188  19.348  0.00  0.00    +0.000 A 
ATOM     21  C   UNK A   4      -1.233   1.063  18.674  0.00  0.00    +0.000 A 
ATOM     22  N   UNK A   4      -1.369   2.360  18.885  0.00  0.00    +0.000 NA
ATOM     23  C   UNK A   4       1.889   4.620  18.278  0.00  0.00    +0.000 C 
ATOM     24  O   UNK A   4       2.115   4.140  17.164  0.00  0.00    +0.000 OA
ENDROOT
BRANCH   6  25
ATOM     25  N   UNK A   6       2.073  -1.152  17.002  0.00  0.00    +0.000 N 
ATOM     26  C   UNK A   6       3.070  -2.004  16.841  0.00  0.00    +0.000 A 
ATOM     27  N   UNK A   6       3.593  -1.813  15.643  0.00  0.00    +0.000 NA
ATOM     28  C   UNK A   6       2.908  -0.804  15.013  0.00  0.00    +0.000 A 
ATOM     29  C   UNK A   6       1.945  -0.382  15.867  0.00  0.00    +0.000 A 
BRANCH  29  30
ATOM     30  C   UNK A   6       0.883   0.662  15.717  0.00  0.00    +0.000 C 
BRANCH  30  31
ATOM     31  C   UNK A   6       1.110   1.614  14.541  0.00  0.00    +0.000 C 
BRANCH  31  32
ATOM     32  N   UNK A   6       2.219   2.515  14.822  0.00  0.00    +0.000 N 
ATOM     33  H   UNK A   6       2.113   3.225  15.574  0.00  0.00    +0.000 HD
ATOM     34  C   LEU A   2       3.361   2.458  14.148  0.00  0.00    +0.000 C 
ATOM     35  O   LEU A   2       3.578   1.640  13.255  0.00  0.00    +0.000 OA
BRANCH  34  36
ATOM     36  CA  LEU A   2       4.423   3.477  14.541  0.00  0.00    +0.000 C 
BRANCH  36  37
ATOM     37  N   LEU A   2       5.726   2.829  14.498  0.00  0.00    +0.000 N 
ATOM     38  C   GLU A   1       6.323   2.365  15.589  0.00  0.00    +0.000 C 
ATOM     39  O   GLU A   1       5.842   2.465  16.719  0.00  0.00    +0.000 OA
ATOM     40  H   LEU A   2       6.206   2.726  13.581  0.00  0.00    +0.000 HD
BRANCH  38  41
ATOM     41  CA  GLU A   1       7.675   1.710  15.372  0.00  0.00    +0.000 C 
BRANCH  41  42
ATOM     42  N   GLU A   1       8.603   2.234  16.363  0.00  0.00    +0.000 NA
ATOM     43  H   GLU A   1       8.271   2.395  17.335  0.00  0.00    +0.000 HD
ENDBRANCH  41  42
BRANCH  41  44
ATOM     44  CB  GLU A   1       7.542   0.186  15.495  0.00  0.00    +0.000 C 
BRANCH  44  45
ATOM     45  CG  GLU A   1       6.709  -0.476  14.394  0.00  0.00    +0.000 C 
BRANCH  45  46
ATOM     46  CD  GLU A   1       6.668  -1.998  14.530  0.00  0.00    +0.000 C 
ATOM     47  OE2 GLU A   1       7.682  -2.578  14.961  0.00  0.00    +0.000 OA
ATOM     48  OE1 GLU A   1       5.631  -2.617  14.195  0.00  0.00    +0.000 OA
ENDBRANCH  45  46
ENDBRANCH  44  45
ENDBRANCH  41  44
ENDBRANCH  38  41
ENDBRANCH  36  37
BRANCH  36  49
ATOM     49  CB  LEU A   2       4.395   4.658  13.559  0.00  0.00    +0.000 C 
BRANCH  49  50
ATOM     50  CG  LEU A   2       3.033   5.154  13.058  0.00  0.00    +0.000 C 
ATOM     51  CD2 LEU A   2       2.223   5.764  14.200  0.00  0.00    +0.000 C 
ATOM     52  CD1 LEU A   2       3.260   6.193  11.962  0.00  0.00    +0.000 C 
ENDBRANCH  49  50
ENDBRANCH  36  49
ENDBRANCH  34  36
ENDBRANCH  31  32
BRANCH  31  53
ATOM     53  C   UNK A   6      -0.181   2.392  14.282  0.00  0.00    +0.000 C 
ATOM     54  O   UNK A   6      -0.635   3.155  15.136  0.00  0.00    +0.000 OA
ATOM     55  N   UNK A   4      -0.751   2.201  13.096  0.00  0.00    +0.000 N 
ATOM     56  H   UNK A   4      -0.279   1.578  12.410  0.00  0.00    +0.000 HD
BRANCH  55  57
ATOM     57  C   UNK A   4      -2.013   2.831  12.719  0.00  0.00    +0.000 C 
BRANCH  57  58
ATOM     58  C   UNK A   4      -3.014   1.682  12.788  0.00  0.00    +0.000 C 
ATOM     59  N   VAL A   5      -3.903   1.745  13.780  0.00  0.00    +0.000 N 
ATOM     60  H   VAL A   5      -3.887   2.581  14.398  0.00  0.00    +0.000 HD
ATOM     61  O   UNK A   4      -2.964   0.761  11.972  0.00  0.00    +0.000 OA
BRANCH  59  62
ATOM     62  CA  VAL A   5      -4.901   0.706  14.052  0.00  0.00    +0.000 C 
BRANCH  62  63
ATOM     63  C   VAL A   5      -6.264   0.940  13.396  0.00  0.00    +0.000 C 
ATOM     64  O   VAL A   5      -6.940   1.919  13.708  0.00  0.00    +0.000 OA
ATOM     65  N   UNK A   6      -6.669   0.020  12.517  0.00  0.00    +0.000 N 
ATOM     66  H   UNK A   6      -6.056  -0.799  12.330  0.00  0.00    +0.000 HD
BRANCH  65  67
ATOM     67  C   UNK A   6      -7.948   0.122  11.805  0.00  0.00    +0.000 C 
BRANCH  67  68
ATOM     68  C   UNK A   6      -8.838  -1.084  12.098  0.00  0.00    +0.000 C 
ATOM     69  O   UNK A   6      -8.350  -2.159  12.463  0.00  0.00    +0.000 OA
ENDBRANCH  67  68
BRANCH  67  70
ATOM     70  C   UNK A   6      -7.740   0.167  10.285  0.00  0.00    +0.000 C 
BRANCH  70  71
ATOM     71  C   UNK A   6      -6.650   1.089   9.829  0.00  0.00    +0.000 A 
ATOM     72  N   UNK A   6      -5.313   0.833  10.054  0.00  0.00    +0.000 NA
ATOM     73  C   UNK A   6      -4.583   1.766   9.467  0.00  0.00    +0.000 A 
ATOM     74  N   UNK A   6      -5.398   2.622   8.876  0.00  0.00    +0.000 NA
ATOM     75  C   UNK A   6      -6.696   2.225   9.091  0.00  0.00    +0.000 A 
ENDBRANCH  70  71
ENDBRANCH  67  70
ENDBRANCH  65  67
ENDBRANCH  62  63
BRANCH  62  76
ATOM     76  CB  VAL A   5      -5.120   0.576  15.584  0.00  0.00    +0.000 C 
ATOM     77  CG2 VAL A   5      -3.788   0.316  16.283  0.00  0.00    +0.000 C 
ATOM     78  CG1 VAL A   5      -6.106  -0.533  15.886  0.00  0.00    +0.000 C 
ENDBRANCH  62  76
ENDBRANCH  59  62
ENDBRANCH  57  58
BRANCH  57  79
ATOM     79  C   UNK A   4      -1.928   3.402  11.299  0.00  0.00    +0.000 C 
BRANCH  79  80
ATOM     80  C   UNK A   4      -0.905   4.535  11.128  0.00  0.00    +0.000 C 
ATOM     81  C   UNK A   4      -1.637   5.873  10.995  0.00  0.00    +0.000 C 
ATOM     82  C   UNK A   4      -0.025   4.268   9.915  0.00  0.00    +0.000 C 
ENDBRANCH  79  80
ENDBRANCH  57  79
ENDBRANCH  55  57
ENDBRANCH  31  53
ENDBRANCH  30  31
ENDBRANCH  29  30
ENDBRANCH   6  25
BRANCH   1  85
ATOM     83  C   UNK A   3      -1.417   5.746  17.262  0.00  0.00    +0.000 C 
ATOM     84  O   UNK A   3      -1.758   6.640  18.045  0.00  0.00    +0.000 OA
ATOM     85  N   UNK A   4      -0.375   4.951  17.477  0.00  0.00    +0.000 N 
ATOM     86  H   UNK A   4      -0.171   4.192  16.796  0.00  0.00    +0.000 HD
BRANCH  83  87
ATOM     87  C   UNK A   3      -2.240   5.445  16.014  0.00  0.00    +0.000 C 
BRANCH  87  89
ATOM     88  C   LEU A   2      -4.621   5.054  15.957  0.00  0.00    +0.000 C 
ATOM     89  N   UNK A   3      -3.606   5.832  16.312  0.00  0.00    +0.000 N 
ATOM     90  H   UNK A   3      -3.792   6.727  16.808  0.00  0.00    +0.000 HD
ATOM     91  O   LEU A   2      -4.483   4.038  15.272  0.00  0.00    +0.000 OA
BRANCH  88  92
ATOM     92  CA  LEU A   2      -5.993   5.508  16.415  0.00  0.00    +0.000 C 
BRANCH  92  95
ATOM     93  C   GLU A   1      -8.326   5.194  15.800  0.00  0.00    +0.000 C 
ATOM     94  O   GLU A   1      -8.689   6.172  16.463  0.00  0.00    +0.000 OA
ATOM     95  N   LEU A   2      -7.058   4.803  15.713  0.00  0.00    +0.000 N 
ATOM     96  H   LEU A   2      -6.821   3.975  15.130  0.00  0.00    +0.000 HD
BRANCH  93  97
ATOM     97  CA  GLU A   1      -9.334   4.342  15.037  0.00  0.00    +0.000 C 
BRANCH  97  98
ATOM     98  N   GLU A   1      -8.836   3.999  13.709  0.00  0.00    +0.000 NA
ATOM     99  H   GLU A   1      -8.193   3.189  13.600  0.00  0.00    +0.000 HD
ENDBRANCH  97  98
BRANCH  97 100
ATOM    100  CB  GLU A   1      -9.604   3.071  15.843  0.00  0.00    +0.000 C 
BRANCH 100 101
ATOM    101  CG  GLU A   1     -10.205   3.324  17.215  0.00  0.00    +0.000 C 
BRANCH 101 102
ATOM    102  CD  GLU A   1     -10.187   2.069  18.075  0.00  0.00    +0.000 C 
BRANCH 102 103
ATOM    103  CE  GLU A   1     -11.384   2.023  19.019  0.00  0.00    +0.000 C 
BRANCH 103 104
ATOM    104  NZ  GLU A   1     -11.692   3.345  19.615  0.00  0.00    +0.000 N 
ATOM    105  HZ1 GLU A   1     -12.513   3.256  20.247  0.00  0.00    +0.000 HD
ATOM    106  HZ2 GLU A   1     -10.870   3.679  20.157  0.00  0.00    +0.000 HD
ATOM    107  HZ3 GLU A   1     -11.908   4.024  18.857  0.00  0.00    +0.000 HD
ENDBRANCH 103 104
ENDBRANCH 102 103
ENDBRANCH 101 102
ENDBRANCH 100 101
ENDBRANCH  97 100
ENDBRANCH  93  97
ENDBRANCH  92  95
BRANCH  92 108
ATOM    108  CB  LEU A   2      -6.114   5.249  17.925  0.00  0.00    +0.000 C 
BRANCH 108 109
ATOM    109  CG  LEU A   2      -6.161   3.761  18.306  0.00  0.00    +0.000 C 
BRANCH 109 110
ATOM    110  CD  LEU A   2      -4.805   3.168  18.703  0.00  0.00    +0.000 C 
ATOM    111  NE2 LEU A   2      -4.840   2.005  19.357  0.00  0.00    +0.000 N 
ATOM    112 HE21 LEU A   2      -3.954   1.543  19.645  0.00  0.00    +0.000 HD
ATOM    113 HE22 LEU A   2      -5.754   1.561  19.579  0.00  0.00    +0.000 HD
ATOM    114  OE1 LEU A   2      -3.747   3.734  18.417  0.00  0.00    +0.000 OA
ENDBRANCH 109 110
ENDBRANCH 108 109
ENDBRANCH  92 108
ENDBRANCH  88  92
ENDBRANCH  87  89
BRANCH  87 115
ATOM    115  C   UNK A   3      -1.690   6.121  14.726  0.00  0.00    +0.000 C 
BRANCH 115 116
ATOM    116  C   UNK A   3      -1.312   7.581  14.861  0.00  0.00    +0.000 A 
ATOM    117  C   UNK A   3      -0.226   7.981  15.643  0.00  0.00    +0.000 A 
ATOM    118  C   UNK A   3       0.187   9.319  15.676  0.00  0.00    +0.000 A 
ATOM    119  C   UNK A   3      -0.488  10.273  14.922  0.00  0.00    +0.000 A 
ATOM    120  C   UNK A   3      -1.581   9.888  14.140  0.00  0.00    +0.000 A 
ATOM    121  C   UNK A   3      -1.984   8.548  14.114  0.00  0.00    +0.000 A 
ENDBRANCH 115 116
ENDBRANCH  87 115
ENDBRANCH  83  87
ENDBRANCH   1  85
BRANCH  12 122
ATOM    122  C   UNK A   6       8.044   2.281  20.407  0.00  0.00    +0.000 C 
ATOM    123  O   UNK A   6       8.466   2.491  19.266  0.00  0.00    +0.000 OA
ENDBRANCH  12 122
BRANCH  16 124
ATOM    124  CB  VAL A   5       5.114   5.543  18.935  0.00  0.00    +0.000 C 
BRANCH 124 125
ATOM    125  CG  VAL A   5       4.650   6.628  18.002  0.00  0.00    +0.000 A 
ATOM    126  CD2 VAL A   5       3.573   7.441  18.335  0.00  0.00    +0.000 A 
ATOM    127  CE2 VAL A   5       3.169   8.479  17.490  0.00  0.00    +0.000 A 
ATOM    128  CZ  VAL A   5       3.844   8.705  16.297  0.00  0.00    +0.000 A 
ATOM    129  CE1 VAL A   5       4.920   7.897  15.950  0.00  0.00    +0.000 A 
ATOM    130  CD1 VAL A   5       5.317   6.861  16.803  0.00  0.00    +0.000 A 
ENDBRANCH 124 125
ENDBRANCH  16 124
TORSDOF 45
REMARK  Name = ../refined-set-2016/3ml5/3ml5_pocket.pdb
REMARK  142 active torsions:
REMARK  status: ('A' for Active; 'I' for Inactive)
REMARK    1  A    between atoms: _1  and  _5
REMARK    2  A    between atoms: _5  and  _6
REMARK    3  A    between atoms: _8  and  _10
REMARK    4  A    between atoms: _10  and  _11
REMARK    5  A    between atoms: _10  and  _13
REMARK    6  A    between atoms: _13  and  _14
REMARK    7  A    between atoms: _24  and  _26
REMARK    8  A    between atoms: _26  and  _27
REMARK    9  A    between atoms: _26  and  _29
REMARK   10  A    between atoms: _29  and  _30
REMARK   11  A    between atoms: _35  and  _36
REMARK   12  A    between atoms: _38  and  _40
REMARK   13  A    between atoms: _40  and  _41
REMARK   14  A    between atoms: _40  and  _43
REMARK   15  A    between atoms: _43  and  _44
REMARK   16  A    between atoms: _47  and  _48
REMARK   17  A    between atoms: _53  and  _55
REMARK   18  A    between atoms: _55  and  _56
REMARK   19  A    between atoms: _55  and  _58
REMARK   20  A    between atoms: _58  and  _59
REMARK   21  A    between atoms: _61  and  _63
REMARK   22  A    between atoms: _63  and  _64
REMARK   23  A    between atoms: _63  and  _66
REMARK   24  A    between atoms: _66  and  _67
REMARK   25  A    between atoms: _67  and  _68
REMARK   26  A    between atoms: _73  and  _75
REMARK   27  A    between atoms: _75  and  _76
REMARK   28  A    between atoms: _75  and  _78
REMARK   29  A    between atoms: _78  and  _79
REMARK   30  A    between atoms: _79  and  _80
REMARK   31  A    between atoms: _80  and  _81
REMARK   32  A    between atoms: _81  and  _82
REMARK   33  A    between atoms: _86  and  _88
REMARK   34  A    between atoms: _88  and  _89
REMARK   35  A    between atoms: _88  and  _91
REMARK   36  A    between atoms: _91  and  _92
REMARK   37  A    between atoms: _92  and  _93
REMARK   38  A    between atoms: _98  and  _100
REMARK   39  A    between atoms: _100  and  _101
REMARK   40  A    between atoms: _100  and  _103
REMARK   41  A    between atoms: _103  and  _104
REMARK   42  A    between atoms: _110  and  _112
REMARK   43  A    between atoms: _123  and  _126
REMARK   44  A    between atoms: _126  and  _127
REMARK   45  A    between atoms: _135  and  _136
REMARK   46  A    between atoms: _144  and  _146
REMARK   47  A    between atoms: _146  and  _147
REMARK   48  A    between atoms: _146  and  _149
REMARK   49  A    between atoms: _149  and  _150
REMARK   50  A    between atoms: _150  and  _151
REMARK   51  A    between atoms: _154  and  _156
REMARK   52  A    between atoms: _156  and  _157
REMARK   53  A    between atoms: _156  and  _159
REMARK   54  A    between atoms: _159  and  _160
REMARK   55  A    between atoms: _165  and  _167
REMARK   56  A    between atoms: _167  and  _168
REMARK   57  A    between atoms: _167  and  _170
REMARK   58  A    between atoms: _170  and  _171
REMARK   59  A    between atoms: _171  and  _172
REMARK   60  A    between atoms: _175  and  _177
REMARK   61  A    between atoms: _177  and  _178
REMARK   62  A    between atoms: _177  and  _180
REMARK   63  A    between atoms: _180  and  _181
REMARK   64  A    between atoms: _184  and  _186
REMARK   65  A    between atoms: _186  and  _187
REMARK   66  A    between atoms: _186  and  _189
REMARK   67  A    between atoms: _189  and  _190
REMARK   68  A    between atoms: _191  and  ZN_395
REMARK   69  A    between atoms: _195  and  _197
REMARK   70  A    between atoms: _197  and  _198
REMARK   71  A    between atoms: _197  and  _200
REMARK   72  A    between atoms: _200  and  _201
REMARK   73  A    between atoms: _204  and  _206
REMARK   74  A    between atoms: _206  and  _207
REMARK   75  A    between atoms: _206  and  _209
REMARK   76  A    between atoms: _212  and  _214
REMARK   77  A    between atoms: _214  and  _215
REMARK   78  A    between atoms: _214  and  _217
REMARK   79  A    between atoms: _217  and  _218
REMARK   80  A    between atoms: _223  and  _225
REMARK   81  A    between atoms: _225  and  _226
REMARK   82  A    between atoms: _225  and  _228
REMARK   83  A    between atoms: _228  and  _229
REMARK   84  A    between atoms: _235  and  _237
REMARK   85  A    between atoms: _237  and  _238
REMARK   86  A    between atoms: _240  and  _242
REMARK   87  A    between atoms: _242  and  _243
REMARK   88  A    between atoms: _246  and  _248
REMARK   89  A    between atoms: _248  and  _249
REMARK   90  A    between atoms: _248  and  _251
REMARK   91  A    between atoms: _251  and  _252
REMARK   92  A    between atoms: _255  and  _257
REMARK   93  A    between atoms: _257  and  _258
REMARK   94  A    between atoms: _261  and  _263
REMARK   95  A    between atoms: _263  and  _264
REMARK   96  A    between atoms: _263  and  _266
REMARK   97  A    between atoms: _269  and  _271
REMARK   98  A    between atoms: _271  and  _272
REMARK   99  A    between atoms: _271  and  _274
REMARK  100  A    between atoms: _277  and  _279
REMARK  101  A    between atoms: _279  and  _280
REMARK  102  A    between atoms: _279  and  _282
REMARK  103  A    between atoms: _282  and  _283
REMARK  104  A    between atoms: _285  and  _287
REMARK  105  A    between atoms: _287  and  _288
REMARK  106  A    between atoms: _287  and  _290
REMARK  107  A    between atoms: _290  and  _291
REMARK  108  A    between atoms: _294  and  _296
REMARK  109  A    between atoms: _296  and  _297
REMARK  110  A    between atoms: _296  and  _299
REMARK  111  A    between atoms: _299  and  _300
REMARK  112  A    between atoms: _303  and  _305
REMARK  113  A    between atoms: _305  and  _306
REMARK  114  A    between atoms: _305  and  _308
REMARK  115  A    between atoms: _308  and  _309
REMARK  116  A    between atoms: _313  and  _314
REMARK  117  A    between atoms: _320  and  _321
REMARK  118  A    between atoms: _326  and  _328
REMARK  119  A    between atoms: _328  and  _329
REMARK  120  A    between atoms: _328  and  _331
REMARK  121  A    between atoms: _331  and  _332
REMARK  122  A    between atoms: _335  and  _337
REMARK  123  A    between atoms: _337  and  _338
REMARK  124  A    between atoms: _337  and  _340
REMARK  125  A    between atoms: _340  and  _341
REMARK  126  A    between atoms: _343  and  _345
REMARK  127  A    between atoms: _345  and  _346
REMARK  128  A    between atoms: _345  and  _348
REMARK  129  A    between atoms: _351  and  _353
REMARK  130  A    between atoms: _353  and  _354
REMARK  131  A    between atoms: _353  and  _356
REMARK  132  A    between atoms: _356  and  _357
REMARK  133  A    between atoms: _367  and  _369
REMARK  134  A    between atoms: _369  and  _370
REMARK  135  A    between atoms: _369  and  _372
REMARK  136  A    between atoms: _372  and  _373
REMARK  137  A    between atoms: _378  and  _380
REMARK  138  A    between atoms: _380  and  _381
REMARK  139  A    between atoms: _380  and  _383
REMARK  140  A    between atoms: _383  and  _384
REMARK  141  A    between atoms: _384  and  _385
REMARK  142  A    between atoms: _385  and  _386
REMARK                            x       y       z     vdW  Elec       q    Type
REMARK                         _______ _______ _______ _____ _____    ______ ____
ROOT
ATOM      1  C   GLU A   1       8.678  -5.501  16.851  0.00  0.00    +0.238 C 
ATOM      2  O   GLU A   1       9.273  -6.538  17.154  0.00  0.00    -0.274 OA
ATOM      3  N   HIS A   2       8.336  -5.201  15.603  0.00  0.00    -0.298 N 
ATOM      4  H   HIS A   2       7.797  -4.334  15.404  0.00  0.00    +0.150 HD
ENDROOT
BRANCH   1   5
ATOM      5  CA  GLU A   1       8.297  -4.484  17.908  0.00  0.00    +0.145 C 
BRANCH   5   6
ATOM      6  N   GLU A   1       8.836  -3.200  17.489  0.00  0.00    -0.238 NA
ATOM      7  H   GLU A   1       8.277  -2.594  16.855  0.00  0.00    +0.142 HD
ENDBRANCH   5   6
BRANCH   5   8
ATOM      8  CB  GLU A   1       6.783  -4.379  18.071  0.00  0.00    +0.038 C 
BRANCH   8   9
ATOM      9  CG  GLU A   1       6.392  -3.308  19.082  0.00  0.00    +0.116 C 
BRANCH   9  10
ATOM     10  CD  GLU A   1       5.119  -3.636  19.826  0.00  0.00    +0.365 C 
ATOM     11  OE2 GLU A   1       5.198  -3.879  21.051  0.00  0.00    -0.246 OA
ATOM     12  OE1 GLU A   1       4.044  -3.651  19.189  0.00  0.00    -0.246 OA
ENDBRANCH   9  10
ENDBRANCH   8   9
ENDBRANCH   5   8
ENDBRANCH   1   5
BRANCH   3  13
ATOM     13  CA  HIS A   2       8.715  -6.082  14.522  0.00  0.00    +0.143 C 
BRANCH  13  14
ATOM     14  C   HIS A   2      10.181  -5.791  14.262  0.00  0.00    +0.227 C 
ATOM     15  O   HIS A   2      10.674  -4.698  14.564  0.00  0.00    -0.286 OA
ENDBRANCH  13  14
BRANCH  13  16
ATOM     16  CB  HIS A   2       7.907  -5.790  13.251  0.00  0.00    +0.075 C 
BRANCH  16  17
ATOM     17  CG  HIS A   2       6.487  -6.250  13.322  0.00  0.00    +0.082 A 
ATOM     18  ND1 HIS A   2       5.473  -5.463  13.824  0.00  0.00    -0.227 NA
ATOM     19  CE1 HIS A   2       4.348  -6.155  13.836  0.00  0.00    +0.199 A 
ATOM     20  NE2 HIS A   2       4.595  -7.362  13.358  0.00  0.00    -0.221 NA
ATOM     21  CD2 HIS A   2       5.924  -7.445  13.026  0.00  0.00    +0.115 A 
ENDBRANCH  16  17
ENDBRANCH  13  16
ENDBRANCH   3  13
TORSDOF 9
REMARK  Name = ../refined-set-2016/3ml5/3ml5_pocket.pdb
REMARK  142 active torsions:
REMARK  status: ('A' for Active; 'I' for Inactive)
REMARK    1  A    between atoms: _1  and  _5
REMARK    2  A    between atoms: _5  and  _6
REMARK    3  A    between atoms: _8  and  _10
REMARK    4  A    between atoms: _10  and  _11
REMARK    5  A    between atoms: _10  and  _13
REMARK    6  A    between atoms: _13  and  _14
REMARK    7  A    between atoms: _24  and  _26
REMARK    8  A    between atoms: _26  and  _27
REMARK    9  A    between atoms: _26  and  _29
REMARK   10  A    between atoms: _29  and  _30
REMARK   11  A    between atoms: _35  and  _36
REMARK   12  A    between atoms: _38  and  _40
REMARK   13  A    between atoms: _40  and  _41
REMARK   14  A    between atoms: _40  and  _43
REMARK   15  A    between atoms: _43  and  _44
REMARK   16  A    between atoms: _47  and  _48
REMARK   17  A    between atoms: _53  and  _55
REMARK   18  A    between atoms: _55  and  _56
REMARK   19  A    between atoms: _55  and  _58
REMARK   20  A    between atoms: _58  and  _59
REMARK   21  A    between atoms: _61  and  _63
REMARK   22  A    between atoms: _63  and  _64
REMARK   23  A    between atoms: _63  and  _66
REMARK   24  A    between atoms: _66  and  _67
REMARK   25  A    between atoms: _67  and  _68
REMARK   26  A    between atoms: _73  and  _75
REMARK   27  A    between atoms: _75  and  _76
REMARK   28  A    between atoms: _75  and  _78
REMARK   29  A    between atoms: _78  and  _79
REMARK   30  A    between atoms: _79  and  _80
REMARK   31  A    between atoms: _80  and  _81
REMARK   32  A    between atoms: _81  and  _82
REMARK   33  A    between atoms: _86  and  _88
REMARK   34  A    between atoms: _88  and  _89
REMARK   35  A    between atoms: _88  and  _91
REMARK   36  A    between atoms: _91  and  _92
REMARK   37  A    between atoms: _92  and  _93
REMARK   38  A    between atoms: _98  and  _100
REMARK   39  A    between atoms: _100  and  _101
REMARK   40  A    between atoms: _100  and  _103
REMARK   41  A    between atoms: _103  and  _104
REMARK   42  A    between atoms: _110  and  _112
REMARK   43  A    between atoms: _123  and  _126
REMARK   44  A    between atoms: _126  and  _127
REMARK   45  A    between atoms: _135  and  _136
REMARK   46  A    between atoms: _144  and  _146
REMARK   47  A    between atoms: _146  and  _147
REMARK   48  A    between atoms: _146  and  _149
REMARK   49  A    between atoms: _149  and  _150
REMARK   50  A    between atoms: _150  and  _151
REMARK   51  A    between atoms: _154  and  _156
REMARK   52  A    between atoms: _156  and  _157
REMARK   53  A    between atoms: _156  and  _159
REMARK   54  A    between atoms: _159  and  _160
REMARK   55  A    between atoms: _165  and  _167
REMARK   56  A    between atoms: _167  and  _168
REMARK   57  A    between atoms: _167  and  _170
REMARK   58  A    between atoms: _170  and  _171
REMARK   59  A    between atoms: _171  and  _172
REMARK   60  A    between atoms: _175  and  _177
REMARK   61  A    between atoms: _177  and  _178
REMARK   62  A    between atoms: _177  and  _180
REMARK   63  A    between atoms: _180  and  _181
REMARK   64  A    between atoms: _184  and  _186
REMARK   65  A    between atoms: _186  and  _187
REMARK   66  A    between atoms: _186  and  _189
REMARK   67  A    between atoms: _189  and  _190
REMARK   68  A    between atoms: _191  and  ZN_395
REMARK   69  A    between atoms: _195  and  _197
REMARK   70  A    between atoms: _197  and  _198
REMARK   71  A    between atoms: _197  and  _200
REMARK   72  A    between atoms: _200  and  _201
REMARK   73  A    between atoms: _204  and  _206
REMARK   74  A    between atoms: _206  and  _207
REMARK   75  A    between atoms: _206  and  _209
REMARK   76  A    between atoms: _212  and  _214
REMARK   77  A    between atoms: _214  and  _215
REMARK   78  A    between atoms: _214  and  _217
REMARK   79  A    between atoms: _217  and  _218
REMARK   80  A    between atoms: _223  and  _225
REMARK   81  A    between atoms: _225  and  _226
REMARK   82  A    between atoms: _225  and  _228
REMARK   83  A    between atoms: _228  and  _229
REMARK   84  A    between atoms: _235  and  _237
REMARK   85  A    between atoms: _237  and  _238
REMARK   86  A    between atoms: _240  and  _242
REMARK   87  A    between atoms: _242  and  _243
REMARK   88  A    between atoms: _246  and  _248
REMARK   89  A    between atoms: _248  and  _249
REMARK   90  A    between atoms: _248  and  _251
REMARK   91  A    between atoms: _251  and  _252
REMARK   92  A    between atoms: _255  and  _257
REMARK   93  A    between atoms: _257  and  _258
REMARK   94  A    between atoms: _261  and  _263
REMARK   95  A    between atoms: _263  and  _264
REMARK   96  A    between atoms: _263  and  _266
REMARK   97  A    between atoms: _269  and  _271
REMARK   98  A    between atoms: _271  and  _272
REMARK   99  A    between atoms: _271  and  _274
REMARK  100  A    between atoms: _277  and  _279
REMARK  101  A    between atoms: _279  and  _280
REMARK  102  A    between atoms: _279  and  _282
REMARK  103  A    between atoms: _282  and  _283
REMARK  104  A    between atoms: _285  and  _287
REMARK  105  A    between atoms: _287  and  _288
REMARK  106  A    between atoms: _287  and  _290
REMARK  107  A    between atoms: _290  and  _291
REMARK  108  A    between atoms: _294  and  _296
REMARK  109  A    between atoms: _296  and  _297
REMARK  110  A    between atoms: _296  and  _299
REMARK  111  A    between atoms: _299  and  _300
REMARK  112  A    between atoms: _303  and  _305
REMARK  113  A    between atoms: _305  and  _306
REMARK  114  A    between atoms: _305  and  _308
REMARK  115  A    between atoms: _308  and  _309
REMARK  116  A    between atoms: _313  and  _314
REMARK  117  A    between atoms: _320  and  _321
REMARK  118  A    between atoms: _326  and  _328
REMARK  119  A    between atoms: _328  and  _329
REMARK  120  A    between atoms: _328  and  _331
REMARK  121  A    between atoms: _331  and  _332
REMARK  122  A    between atoms: _335  and  _337
REMARK  123  A    between atoms: _337  and  _338
REMARK  124  A    between atoms: _337  and  _340
REMARK  125  A    between atoms: _340  and  _341
REMARK  126  A    between atoms: _343  and  _345
REMARK  127  A    between atoms: _345  and  _346
REMARK  128  A    between atoms: _345  and  _348
REMARK  129  A    between atoms: _351  and  _353
REMARK  130  A    between atoms: _353  and  _354
REMARK  131  A    between atoms: _353  and  _356
REMARK  132  A    between atoms: _356  and  _357
REMARK  133  A    between atoms: _367  and  _369
REMARK  134  A    between atoms: _369  and  _370
REMARK  135  A    between atoms: _369  and  _372
REMARK  136  A    between atoms: _372  and  _373
REMARK  137  A    between atoms: _378  and  _380
REMARK  138  A    between atoms: _380  and  _381
REMARK  139  A    between atoms: _380  and  _383
REMARK  140  A    between atoms: _383  and  _384
REMARK  141  A    between atoms: _384  and  _385
REMARK  142  A    between atoms: _385  and  _386
REMARK                            x       y       z     vdW  Elec       q    Type
REMARK                         _______ _______ _______ _____ _____    ______ ____
ROOT
ATOM      1  CA  PHE A   1     -14.112  -2.120  17.473  0.00  0.00    +0.149 C 
ENDROOT
BRANCH   1   2
ATOM      2  C   PHE A   1     -13.936  -3.349  18.359  0.00  0.00    +0.239 C 
ATOM      3  N   GLY A   2     -14.643  -3.370  19.487  0.00  0.00    -0.297 N 
ATOM      4  H   GLY A   2     -15.262  -2.568  19.722  0.00  0.00    +0.150 HD
ATOM      5  O   PHE A   1     -13.184  -4.259  18.023  0.00  0.00    -0.274 OA
BRANCH   3   6
ATOM      6  CA  GLY A   2     -14.558  -4.503  20.394  0.00  0.00    +0.163 C 
BRANCH   6   7
ATOM      7  C   GLY A   2     -14.980  -5.783  19.693  0.00  0.00    +0.229 C 
ATOM      8  O   GLY A   2     -14.341  -6.827  19.833  0.00  0.00    -0.286 OA
ENDBRANCH   6   7
ENDBRANCH   3   6
ENDBRANCH   1   2
BRANCH   1   9
ATOM      9  N   PHE A   1     -15.502  -1.696  17.534  0.00  0.00    -0.238 NA
ATOM     10  H   PHE A   1     -15.736  -0.749  17.894  0.00  0.00    +0.142 HD
ENDBRANCH   1   9
BRANCH   1  11
ATOM     11  CB  PHE A   1     -13.185  -0.986  17.932  0.00  0.00    +0.053 C 
BRANCH  11  12
ATOM     12  CG  PHE A   1     -11.746  -1.397  18.069  0.00  0.00    -0.020 A 
ATOM     13  CD2 PHE A   1     -11.296  -2.025  19.228  0.00  0.00    -0.004 A 
ATOM     14  CE2 PHE A   1      -9.967  -2.433  19.351  0.00  0.00    -0.000 A 
ATOM     15  CZ  PHE A   1      -9.075  -2.210  18.305  0.00  0.00    -0.000 A 
ATOM     16  CE1 PHE A   1      -9.513  -1.583  17.145  0.00  0.00    -0.000 A 
ATOM     17  CD1 PHE A   1     -10.844  -1.179  17.032  0.00  0.00    -0.004 A 
ENDBRANCH  11  12
ENDBRANCH   1  11
TORSDOF 6
REMARK  Name = ../refined-set-2016/3ml5/3ml5_pocket.pdb
REMARK  142 active torsions:
REMARK  status: ('A' for Active; 'I' for Inactive)
REMARK    1  A    between atoms: _1  and  _5
REMARK    2  A    between atoms: _5  and  _6
REMARK    3  A    between atoms: _8  and  _10
REMARK    4  A    between atoms: _10  and  _11
REMARK    5  A    between atoms: _10  and  _13
REMARK    6  A    between atoms: _13  and  _14
REMARK    7  A    between atoms: _24  and  _26
REMARK    8  A    between atoms: _26  and  _27
REMARK    9  A    between atoms: _26  and  _29
REMARK   10  A    between atoms: _29  and  _30
REMARK   11  A    between atoms: _35  and  _36
REMARK   12  A    between atoms: _38  and  _40
REMARK   13  A    between atoms: _40  and  _41
REMARK   14  A    between atoms: _40  and  _43
REMARK   15  A    between atoms: _43  and  _44
REMARK   16  A    between atoms: _47  and  _48
REMARK   17  A    between atoms: _53  and  _55
REMARK   18  A    between atoms: _55  and  _56
REMARK   19  A    between atoms: _55  and  _58
REMARK   20  A    between atoms: _58  and  _59
REMARK   21  A    between atoms: _61  and  _63
REMARK   22  A    between atoms: _63  and  _64
REMARK   23  A    between atoms: _63  and  _66
REMARK   24  A    between atoms: _66  and  _67
REMARK   25  A    between atoms: _67  and  _68
REMARK   26  A    between atoms: _73  and  _75
REMARK   27  A    between atoms: _75  and  _76
REMARK   28  A    between atoms: _75  and  _78
REMARK   29  A    between atoms: _78  and  _79
REMARK   30  A    between atoms: _79  and  _80
REMARK   31  A    between atoms: _80  and  _81
REMARK   32  A    between atoms: _81  and  _82
REMARK   33  A    between atoms: _86  and  _88
REMARK   34  A    between atoms: _88  and  _89
REMARK   35  A    between atoms: _88  and  _91
REMARK   36  A    between atoms: _91  and  _92
REMARK   37  A    between atoms: _92  and  _93
REMARK   38  A    between atoms: _98  and  _100
REMARK   39  A    between atoms: _100  and  _101
REMARK   40  A    between atoms: _100  and  _103
REMARK   41  A    between atoms: _103  and  _104
REMARK   42  A    between atoms: _110  and  _112
REMARK   43  A    between atoms: _123  and  _126
REMARK   44  A    between atoms: _126  and  _127
REMARK   45  A    between atoms: _135  and  _136
REMARK   46  A    between atoms: _144  and  _146
REMARK   47  A    between atoms: _146  and  _147
REMARK   48  A    between atoms: _146  and  _149
REMARK   49  A    between atoms: _149  and  _150
REMARK   50  A    between atoms: _150  and  _151
REMARK   51  A    between atoms: _154  and  _156
REMARK   52  A    between atoms: _156  and  _157
REMARK   53  A    between atoms: _156  and  _159
REMARK   54  A    between atoms: _159  and  _160
REMARK   55  A    between atoms: _165  and  _167
REMARK   56  A    between atoms: _167  and  _168
REMARK   57  A    between atoms: _167  and  _170
REMARK   58  A    between atoms: _170  and  _171
REMARK   59  A    between atoms: _171  and  _172
REMARK   60  A    between atoms: _175  and  _177
REMARK   61  A    between atoms: _177  and  _178
REMARK   62  A    between atoms: _177  and  _180
REMARK   63  A    between atoms: _180  and  _181
REMARK   64  A    between atoms: _184  and  _186
REMARK   65  A    between atoms: _186  and  _187
REMARK   66  A    between atoms: _186  and  _189
REMARK   67  A    between atoms: _189  and  _190
REMARK   68  A    between atoms: _191  and  ZN_395
REMARK   69  A    between atoms: _195  and  _197
REMARK   70  A    between atoms: _197  and  _198
REMARK   71  A    between atoms: _197  and  _200
REMARK   72  A    between atoms: _200  and  _201
REMARK   73  A    between atoms: _204  and  _206
REMARK   74  A    between atoms: _206  and  _207
REMARK   75  A    between atoms: _206  and  _209
REMARK   76  A    between atoms: _212  and  _214
REMARK   77  A    between atoms: _214  and  _215
REMARK   78  A    between atoms: _214  and  _217
REMARK   79  A    between atoms: _217  and  _218
REMARK   80  A    between atoms: _223  and  _225
REMARK   81  A    between atoms: _225  and  _226
REMARK   82  A    between atoms: _225  and  _228
REMARK   83  A    between atoms: _228  and  _229
REMARK   84  A    between atoms: _235  and  _237
REMARK   85  A    between atoms: _237  and  _238
REMARK   86  A    between atoms: _240  and  _242
REMARK   87  A    between atoms: _242  and  _243
REMARK   88  A    between atoms: _246  and  _248
REMARK   89  A    between atoms: _248  and  _249
REMARK   90  A    between atoms: _248  and  _251
REMARK   91  A    between atoms: _251  and  _252
REMARK   92  A    between atoms: _255  and  _257
REMARK   93  A    between atoms: _257  and  _258
REMARK   94  A    between atoms: _261  and  _263
REMARK   95  A    between atoms: _263  and  _264
REMARK   96  A    between atoms: _263  and  _266
REMARK   97  A    between atoms: _269  and  _271
REMARK   98  A    between atoms: _271  and  _272
REMARK   99  A    between atoms: _271  and  _274
REMARK  100  A    between atoms: _277  and  _279
REMARK  101  A    between atoms: _279  and  _280
REMARK  102  A    between atoms: _279  and  _282
REMARK  103  A    between atoms: _282  and  _283
REMARK  104  A    between atoms: _285  and  _287
REMARK  105  A    between atoms: _287  and  _288
REMARK  106  A    between atoms: _287  and  _290
REMARK  107  A    between atoms: _290  and  _291
REMARK  108  A    between atoms: _294  and  _296
REMARK  109  A    between atoms: _296  and  _297
REMARK  110  A    between atoms: _296  and  _299
REMARK  111  A    between atoms: _299  and  _300
REMARK  112  A    between atoms: _303  and  _305
REMARK  113  A    between atoms: _305  and  _306
REMARK  114  A    between atoms: _305  and  _308
REMARK  115  A    between atoms: _308  and  _309
REMARK  116  A    between atoms: _313  and  _314
REMARK  117  A    between atoms: _320  and  _321
REMARK  118  A    between atoms: _326  and  _328
REMARK  119  A    between atoms: _328  and  _329
REMARK  120  A    between atoms: _328  and  _331
REMARK  121  A    between atoms: _331  and  _332
REMARK  122  A    between atoms: _335  and  _337
REMARK  123  A    between atoms: _337  and  _338
REMARK  124  A    between atoms: _337  and  _340
REMARK  125  A    between atoms: _340  and  _341
REMARK  126  A    between atoms: _343  and  _345
REMARK  127  A    between atoms: _345  and  _346
REMARK  128  A    between atoms: _345  and  _348
REMARK  129  A    between atoms: _351  and  _353
REMARK  130  A    between atoms: _353  and  _354
REMARK  131  A    between atoms: _353  and  _356
REMARK  132  A    between atoms: _356  and  _357
REMARK  133  A    between atoms: _367  and  _369
REMARK  134  A    between atoms: _369  and  _370
REMARK  135  A    between atoms: _369  and  _372
REMARK  136  A    between atoms: _372  and  _373
REMARK  137  A    between atoms: _378  and  _380
REMARK  138  A    between atoms: _380  and  _381
REMARK  139  A    between atoms: _380  and  _383
REMARK  140  A    between atoms: _383  and  _384
REMARK  141  A    between atoms: _384  and  _385
REMARK  142  A    between atoms: _385  and  _386
REMARK                            x       y       z     vdW  Elec       q    Type
REMARK                         _______ _______ _______ _____ _____    ______ ____
ROOT
ATOM      1  CA  ALA A   1     -11.271  -7.265  17.660  0.00  0.00    +0.133 C 
ATOM      2  CB  ALA A   1     -10.979  -6.421  18.900  0.00  0.00    +0.027 C 
ENDROOT
BRANCH   1   3
ATOM      3  N   ALA A   1     -12.474  -6.770  17.005  0.00  0.00    -0.239 NA
ATOM      4  H   ALA A   1     -13.050  -6.052  17.489  0.00  0.00    +0.142 HD
ENDBRANCH   1   3
BRANCH   1   5
ATOM      5  C   ALA A   1     -11.345  -8.742  18.041  0.00  0.00    +0.224 C 
ATOM      6  O   ALA A   1     -10.322  -9.367  18.326  0.00  0.00    -0.287 OA
ENDBRANCH   1   5
TORSDOF 2
REMARK  Name = ../refined-set-2016/3ml5/3ml5_pocket.pdb
REMARK  142 active torsions:
REMARK  status: ('A' for Active; 'I' for Inactive)
REMARK    1  A    between atoms: _1  and  _5
REMARK    2  A    between atoms: _5  and  _6
REMARK    3  A    between atoms: _8  and  _10
REMARK    4  A    between atoms: _10  and  _11
REMARK    5  A    between atoms: _10  and  _13
REMARK    6  A    between atoms: _13  and  _14
REMARK    7  A    between atoms: _24  and  _26
REMARK    8  A    between atoms: _26  and  _27
REMARK    9  A    between atoms: _26  and  _29
REMARK   10  A    between atoms: _29  and  _30
REMARK   11  A    between atoms: _35  and  _36
REMARK   12  A    between atoms: _38  and  _40
REMARK   13  A    between atoms: _40  and  _41
REMARK   14  A    between atoms: _40  and  _43
REMARK   15  A    between atoms: _43  and  _44
REMARK   16  A    between atoms: _47  and  _48
REMARK   17  A    between atoms: _53  and  _55
REMARK   18  A    between atoms: _55  and  _56
REMARK   19  A    between atoms: _55  and  _58
REMARK   20  A    between atoms: _58  and  _59
REMARK   21  A    between atoms: _61  and  _63
REMARK   22  A    between atoms: _63  and  _64
REMARK   23  A    between atoms: _63  and  _66
REMARK   24  A    between atoms: _66  and  _67
REMARK   25  A    between atoms: _67  and  _68
REMARK   26  A    between atoms: _73  and  _75
REMARK   27  A    between atoms: _75  and  _76
REMARK   28  A    between atoms: _75  and  _78
REMARK   29  A    between atoms: _78  and  _79
REMARK   30  A    between atoms: _79  and  _80
REMARK   31  A    between atoms: _80  and  _81
REMARK   32  A    between atoms: _81  and  _82
REMARK   33  A    between atoms: _86  and  _88
REMARK   34  A    between atoms: _88  and  _89
REMARK   35  A    between atoms: _88  and  _91
REMARK   36  A    between atoms: _91  and  _92
REMARK   37  A    between atoms: _92  and  _93
REMARK   38  A    between atoms: _98  and  _100
REMARK   39  A    between atoms: _100  and  _101
REMARK   40  A    between atoms: _100  and  _103
REMARK   41  A    between atoms: _103  and  _104
REMARK   42  A    between atoms: _110  and  _112
REMARK   43  A    between atoms: _123  and  _126
REMARK   44  A    between atoms: _126  and  _127
REMARK   45  A    between atoms: _135  and  _136
REMARK   46  A    between atoms: _144  and  _146
REMARK   47  A    between atoms: _146  and  _147
REMARK   48  A    between atoms: _146  and  _149
REMARK   49  A    between atoms: _149  and  _150
REMARK   50  A    between atoms: _150  and  _151
REMARK   51  A    between atoms: _154  and  _156
REMARK   52  A    between atoms: _156  and  _157
REMARK   53  A    between atoms: _156  and  _159
REMARK   54  A    between atoms: _159  and  _160
REMARK   55  A    between atoms: _165  and  _167
REMARK   56  A    between atoms: _167  and  _168
REMARK   57  A    between atoms: _167  and  _170
REMARK   58  A    between atoms: _170  and  _171
REMARK   59  A    between atoms: _171  and  _172
REMARK   60  A    between atoms: _175  and  _177
REMARK   61  A    between atoms: _177  and  _178
REMARK   62  A    between atoms: _177  and  _180
REMARK   63  A    between atoms: _180  and  _181
REMARK   64  A    between atoms: _184  and  _186
REMARK   65  A    between atoms: _186  and  _187
REMARK   66  A    between atoms: _186  and  _189
REMARK   67  A    between atoms: _189  and  _190
REMARK   68  A    between atoms: _191  and  ZN_395
REMARK   69  A    between atoms: _195  and  _197
REMARK   70  A    between atoms: _197  and  _198
REMARK   71  A    between atoms: _197  and  _200
REMARK   72  A    between atoms: _200  and  _201
REMARK   73  A    between atoms: _204  and  _206
REMARK   74  A    between atoms: _206  and  _207
REMARK   75  A    between atoms: _206  and  _209
REMARK   76  A    between atoms: _212  and  _214
REMARK   77  A    between atoms: _214  and  _215
REMARK   78  A    between atoms: _214  and  _217
REMARK   79  A    between atoms: _217  and  _218
REMARK   80  A    between atoms: _223  and  _225
REMARK   81  A    between atoms: _225  and  _226
REMARK   82  A    between atoms: _225  and  _228
REMARK   83  A    between atoms: _228  and  _229
REMARK   84  A    between atoms: _235  and  _237
REMARK   85  A    between atoms: _237  and  _238
REMARK   86  A    between atoms: _240  and  _242
REMARK   87  A    between atoms: _242  and  _243
REMARK   88  A    between atoms: _246  and  _248
REMARK   89  A    between atoms: _248  and  _249
REMARK   90  A    between atoms: _248  and  _251
REMARK   91  A    between atoms: _251  and  _252
REMARK   92  A    between atoms: _255  and  _257
REMARK   93  A    between atoms: _257  and  _258
REMARK   94  A    between atoms: _261  and  _263
REMARK   95  A    between atoms: _263  and  _264
REMARK   96  A    between atoms: _263  and  _266
REMARK   97  A    between atoms: _269  and  _271
REMARK   98  A    between atoms: _271  and  _272
REMARK   99  A    between atoms: _271  and  _274
REMARK  100  A    between atoms: _277  and  _279
REMARK  101  A    between atoms: _279  and  _280
REMARK  102  A    between atoms: _279  and  _282
REMARK  103  A    between atoms: _282  and  _283
REMARK  104  A    between atoms: _285  and  _287
REMARK  105  A    between atoms: _287  and  _288
REMARK  106  A    between atoms: _287  and  _290
REMARK  107  A    between atoms: _290  and  _291
REMARK  108  A    between atoms: _294  and  _296
REMARK  109  A    between atoms: _296  and  _297
REMARK  110  A    between atoms: _296  and  _299
REMARK  111  A    between atoms: _299  and  _300
REMARK  112  A    between atoms: _303  and  _305
REMARK  113  A    between atoms: _305  and  _306
REMARK  114  A    between atoms: _305  and  _308
REMARK  115  A    between atoms: _308  and  _309
REMARK  116  A    between atoms: _313  and  _314
REMARK  117  A    between atoms: _320  and  _321
REMARK  118  A    between atoms: _326  and  _328
REMARK  119  A    between atoms: _328  and  _329
REMARK  120  A    between atoms: _328  and  _331
REMARK  121  A    between atoms: _331  and  _332
REMARK  122  A    between atoms: _335  and  _337
REMARK  123  A    between atoms: _337  and  _338
REMARK  124  A    between atoms: _337  and  _340
REMARK  125  A    between atoms: _340  and  _341
REMARK  126  A    between atoms: _343  and  _345
REMARK  127  A    between atoms: _345  and  _346
REMARK  128  A    between atoms: _345  and  _348
REMARK  129  A    between atoms: _351  and  _353
REMARK  130  A    between atoms: _353  and  _354
REMARK  131  A    between atoms: _353  and  _356
REMARK  132  A    between atoms: _356  and  _357
REMARK  133  A    between atoms: _367  and  _369
REMARK  134  A    between atoms: _369  and  _370
REMARK  135  A    between atoms: _369  and  _372
REMARK  136  A    between atoms: _372  and  _373
REMARK  137  A    between atoms: _378  and  _380
REMARK  138  A    between atoms: _380  and  _381
REMARK  139  A    between atoms: _380  and  _383
REMARK  140  A    between atoms: _383  and  _384
REMARK  141  A    between atoms: _384  and  _385
REMARK  142  A    between atoms: _385  and  _386
REMARK                            x       y       z     vdW  Elec       q    Type
REMARK                         _______ _______ _______ _____ _____    ______ ____
ROOT
ATOM      1  C   ALA A   2      -4.879  -3.152  10.823  0.00  0.00    +0.241 C 
ATOM      2  N   VAL A   3      -3.630  -3.509  11.104  0.00  0.00    -0.297 N 
ATOM      3  H   VAL A   3      -3.314  -4.482  10.918  0.00  0.00    +0.150 HD
ATOM      4  O   ALA A   2      -5.318  -2.029  11.068  0.00  0.00    -0.273 OA
ENDROOT
BRANCH   1   5
ATOM      5  CA  ALA A   2      -5.784  -4.217  10.211  0.00  0.00    +0.149 C 
ATOM      6  CB  ALA A   2      -6.292  -3.764   8.841  0.00  0.00    +0.031 C 
BRANCH   5   8
ATOM      7  C   LEU A   1      -7.423  -5.578  11.385  0.00  0.00    +0.238 C 
ATOM      8  N   ALA A   2      -6.896  -4.387  11.131  0.00  0.00    -0.297 N 
ATOM      9  H   ALA A   2      -7.291  -3.550  11.605  0.00  0.00    +0.150 HD
ATOM     10  O   LEU A   1      -7.033  -6.612  10.855  0.00  0.00    -0.274 OA
BRANCH   7  11
ATOM     11  CA  LEU A   1      -8.549  -5.583  12.411  0.00  0.00    +0.145 C 
BRANCH  11  12
ATOM     12  N   LEU A   1      -9.491  -6.693  12.322  0.00  0.00    -0.238 NA
ATOM     13  H   LEU A   1      -9.137  -7.671  12.341  0.00  0.00    +0.142 HD
ENDBRANCH  11  12
BRANCH  11  14
ATOM     14  CB  LEU A   1      -7.916  -5.558  13.806  0.00  0.00    +0.026 C 
BRANCH  14  15
ATOM     15  CG  LEU A   1      -8.828  -5.703  15.027  0.00  0.00    +0.002 C 
ATOM     16  CD2 LEU A   1      -7.978  -5.671  16.303  0.00  0.00    +0.000 C 
ATOM     17  CD1 LEU A   1      -9.849  -4.571  15.041  0.00  0.00    +0.000 C 
ENDBRANCH  14  15
ENDBRANCH  11  14
ENDBRANCH   7  11
ENDBRANCH   5   8
ENDBRANCH   1   5
BRANCH   2  18
ATOM     18  CA  VAL A   3      -2.703  -2.541  11.672  0.00  0.00    +0.149 C 
BRANCH  18  19
ATOM     19  C   VAL A   3      -1.544  -2.289  10.719  0.00  0.00    +0.241 C 
ATOM     20  N   VAL A   4      -1.337  -1.021  10.405  0.00  0.00    -0.298 N 
ATOM     21  H   VAL A   4      -1.964  -0.288  10.794  0.00  0.00    +0.150 HD
ATOM     22  O   VAL A   3      -0.869  -3.213  10.256  0.00  0.00    -0.273 OA
BRANCH  20  23
ATOM     23  CA  VAL A   4      -0.254  -0.640   9.530  0.00  0.00    +0.137 C 
BRANCH  23  24
ATOM     24  CB  VAL A   4      -0.662   0.526   8.615  0.00  0.00    +0.026 C 
ATOM     25  CG2 VAL A   4       0.524   0.964   7.769  0.00  0.00    +0.002 C 
ATOM     26  CG1 VAL A   4      -1.822   0.093   7.724  0.00  0.00    +0.002 C 
ENDBRANCH  23  24
BRANCH  23  27
ATOM     27  C   VAL A   4       0.915  -0.226  10.407  0.00  0.00    +0.227 C 
ATOM     28  O   VAL A   4       0.788   0.661  11.256  0.00  0.00    -0.286 OA
ENDBRANCH  23  27
ENDBRANCH  20  23
ENDBRANCH  18  19
BRANCH  18  29
ATOM     29  CB  VAL A   3      -2.141  -3.000  13.043  0.00  0.00    +0.027 C 
ATOM     30  CG2 VAL A   3      -3.292  -3.285  14.017  0.00  0.00    +0.002 C 
ATOM     31  CG1 VAL A   3      -1.233  -1.914  13.617  0.00  0.00    +0.002 C 
ENDBRANCH  18  29
ENDBRANCH   2  18
TORSDOF 12
REMARK  Name = ../refined-set-2016/3ml5/3ml5_pocket.pdb
REMARK  142 active torsions:
REMARK  status: ('A' for Active; 'I' for Inactive)
REMARK    1  A    between atoms: _1  and  _5
REMARK    2  A    between atoms: _5  and  _6
REMARK    3  A    between atoms: _8  and  _10
REMARK    4  A    between atoms: _10  and  _11
REMARK    5  A    between atoms: _10  and  _13
REMARK    6  A    between atoms: _13  and  _14
REMARK    7  A    between atoms: _24  and  _26
REMARK    8  A    between atoms: _26  and  _27
REMARK    9  A    between atoms: _26  and  _29
REMARK   10  A    between atoms: _29  and  _30
REMARK   11  A    between atoms: _35  and  _36
REMARK   12  A    between atoms: _38  and  _40
REMARK   13  A    between atoms: _40  and  _41
REMARK   14  A    between atoms: _40  and  _43
REMARK   15  A    between atoms: _43  and  _44
REMARK   16  A    between atoms: _47  and  _48
REMARK   17  A    between atoms: _53  and  _55
REMARK   18  A    between atoms: _55  and  _56
REMARK   19  A    between atoms: _55  and  _58
REMARK   20  A    between atoms: _58  and  _59
REMARK   21  A    between atoms: _61  and  _63
REMARK   22  A    between atoms: _63  and  _64
REMARK   23  A    between atoms: _63  and  _66
REMARK   24  A    between atoms: _66  and  _67
REMARK   25  A    between atoms: _67  and  _68
REMARK   26  A    between atoms: _73  and  _75
REMARK   27  A    between atoms: _75  and  _76
REMARK   28  A    between atoms: _75  and  _78
REMARK   29  A    between atoms: _78  and  _79
REMARK   30  A    between atoms: _79  and  _80
REMARK   31  A    between atoms: _80  and  _81
REMARK   32  A    between atoms: _81  and  _82
REMARK   33  A    between atoms: _86  and  _88
REMARK   34  A    between atoms: _88  and  _89
REMARK   35  A    between atoms: _88  and  _91
REMARK   36  A    between atoms: _91  and  _92
REMARK   37  A    between atoms: _92  and  _93
REMARK   38  A    between atoms: _98  and  _100
REMARK   39  A    between atoms: _100  and  _101
REMARK   40  A    between atoms: _100  and  _103
REMARK   41  A    between atoms: _103  and  _104
REMARK   42  A    between atoms: _110  and  _112
REMARK   43  A    between atoms: _123  and  _126
REMARK   44  A    between atoms: _126  and  _127
REMARK   45  A    between atoms: _135  and  _136
REMARK   46  A    between atoms: _144  and  _146
REMARK   47  A    between atoms: _146  and  _147
REMARK   48  A    between atoms: _146  and  _149
REMARK   49  A    between atoms: _149  and  _150
REMARK   50  A    between atoms: _150  and  _151
REMARK   51  A    between atoms: _154  and  _156
REMARK   52  A    between atoms: _156  and  _157
REMARK   53  A    between atoms: _156  and  _159
REMARK   54  A    between atoms: _159  and  _160
REMARK   55  A    between atoms: _165  and  _167
REMARK   56  A    between atoms: _167  and  _168
REMARK   57  A    between atoms: _167  and  _170
REMARK   58  A    between atoms: _170  and  _171
REMARK   59  A    between atoms: _171  and  _172
REMARK   60  A    between atoms: _175  and  _177
REMARK   61  A    between atoms: _177  and  _178
REMARK   62  A    between atoms: _177  and  _180
REMARK   63  A    between atoms: _180  and  _181
REMARK   64  A    between atoms: _184  and  _186
REMARK   65  A    between atoms: _186  and  _187
REMARK   66  A    between atoms: _186  and  _189
REMARK   67  A    between atoms: _189  and  _190
REMARK   68  A    between atoms: _191  and  ZN_395
REMARK   69  A    between atoms: _195  and  _197
REMARK   70  A    between atoms: _197  and  _198
REMARK   71  A    between atoms: _197  and  _200
REMARK   72  A    between atoms: _200  and  _201
REMARK   73  A    between atoms: _204  and  _206
REMARK   74  A    between atoms: _206  and  _207
REMARK   75  A    between atoms: _206  and  _209
REMARK   76  A    between atoms: _212  and  _214
REMARK   77  A    between atoms: _214  and  _215
REMARK   78  A    between atoms: _214  and  _217
REMARK   79  A    between atoms: _217  and  _218
REMARK   80  A    between atoms: _223  and  _225
REMARK   81  A    between atoms: _225  and  _226
REMARK   82  A    between atoms: _225  and  _228
REMARK   83  A    between atoms: _228  and  _229
REMARK   84  A    between atoms: _235  and  _237
REMARK   85  A    between atoms: _237  and  _238
REMARK   86  A    between atoms: _240  and  _242
REMARK   87  A    between atoms: _242  and  _243
REMARK   88  A    between atoms: _246  and  _248
REMARK   89  A    between atoms: _248  and  _249
REMARK   90  A    between atoms: _248  and  _251
REMARK   91  A    between atoms: _251  and  _252
REMARK   92  A    between atoms: _255  and  _257
REMARK   93  A    between atoms: _257  and  _258
REMARK   94  A    between atoms: _261  and  _263
REMARK   95  A    between atoms: _263  and  _264
REMARK   96  A    between atoms: _263  and  _266
REMARK   97  A    between atoms: _269  and  _271
REMARK   98  A    between atoms: _271  and  _272
REMARK   99  A    between atoms: _271  and  _274
REMARK  100  A    between atoms: _277  and  _279
REMARK  101  A    between atoms: _279  and  _280
REMARK  102  A    between atoms: _279  and  _282
REMARK  103  A    between atoms: _282  and  _283
REMARK  104  A    between atoms: _285  and  _287
REMARK  105  A    between atoms: _287  and  _288
REMARK  106  A    between atoms: _287  and  _290
REMARK  107  A    between atoms: _290  and  _291
REMARK  108  A    between atoms: _294  and  _296
REMARK  109  A    between atoms: _296  and  _297
REMARK  110  A    between atoms: _296  and  _299
REMARK  111  A    between atoms: _299  and  _300
REMARK  112  A    between atoms: _303  and  _305
REMARK  113  A    between atoms: _305  and  _306
REMARK  114  A    between atoms: _305  and  _308
REMARK  115  A    between atoms: _308  and  _309
REMARK  116  A    between atoms: _313  and  _314
REMARK  117  A    between atoms: _320  and  _321
REMARK  118  A    between atoms: _326  and  _328
REMARK  119  A    between atoms: _328  and  _329
REMARK  120  A    between atoms: _328  and  _331
REMARK  121  A    between atoms: _331  and  _332
REMARK  122  A    between atoms: _335  and  _337
REMARK  123  A    between atoms: _337  and  _338
REMARK  124  A    between atoms: _337  and  _340
REMARK  125  A    between atoms: _340  and  _341
REMARK  126  A    between atoms: _343  and  _345
REMARK  127  A    between atoms: _345  and  _346
REMARK  128  A    between atoms: _345  and  _348
REMARK  129  A    between atoms: _351  and  _353
REMARK  130  A    between atoms: _353  and  _354
REMARK  131  A    between atoms: _353  and  _356
REMARK  132  A    between atoms: _356  and  _357
REMARK  133  A    between atoms: _367  and  _369
REMARK  134  A    between atoms: _369  and  _370
REMARK  135  A    between atoms: _369  and  _372
REMARK  136  A    between atoms: _372  and  _373
REMARK  137  A    between atoms: _378  and  _380
REMARK  138  A    between atoms: _380  and  _381
REMARK  139  A    between atoms: _380  and  _383
REMARK  140  A    between atoms: _383  and  _384
REMARK  141  A    between atoms: _384  and  _385
REMARK  142  A    between atoms: _385  and  _386
REMARK                            x       y       z     vdW  Elec       q    Type
REMARK                         _______ _______ _______ _____ _____    ______ ____
ROOT
ATOM      1  CA  THR A   4      -0.545  -5.575  23.977  0.00  0.00    +0.176 C 
ENDROOT
BRANCH   1   2
ATOM      2  C   THR A   4      -1.851  -6.268  24.341  0.00  0.00    +0.246 C 
ATOM      3  N   PRO A   5      -2.029  -6.626  25.620  0.00  0.00    -0.272 N 
ATOM      4  CD  PRO A   5      -1.097  -6.522  26.756  0.00  0.00    +0.094 C 
ATOM      5  CG  PRO A   5      -1.744  -7.420  27.792  0.00  0.00    +0.024 C 
ATOM      6  CB  PRO A   5      -3.208  -7.232  27.536  0.00  0.00    +0.031 C 
ATOM      7  CA  PRO A   5      -3.275  -7.286  26.019  0.00  0.00    +0.152 C 
ATOM      8  O   THR A   4      -2.691  -6.512  23.475  0.00  0.00    -0.273 OA
BRANCH   7   9
ATOM      9  C   PRO A   5      -4.445  -6.485  25.452  0.00  0.00    +0.244 C 
ATOM     10  O   PRO A   5      -4.383  -5.256  25.392  0.00  0.00    -0.273 OA
ATOM     11  N   PRO A   6      -5.549  -7.156  25.083  0.00  0.00    -0.272 N 
ATOM     12  CA  PRO A   6      -5.840  -8.593  25.130  0.00  0.00    +0.152 C 
ATOM     13  CB  PRO A   6      -7.353  -8.629  24.932  0.00  0.00    +0.031 C 
ATOM     14  CG  PRO A   6      -7.569  -7.527  23.970  0.00  0.00    +0.024 C 
ATOM     15  CD  PRO A   6      -6.697  -6.416  24.527  0.00  0.00    +0.094 C 
BRANCH  12  16
ATOM     16  C   PRO A   6      -5.101  -9.532  24.168  0.00  0.00    +0.241 C 
ATOM     17  O   PRO A   6      -5.340 -10.739  24.186  0.00  0.00    -0.273 OA
ATOM     18  N   LEU A   7      -4.223  -8.991  23.328  0.00  0.00    -0.297 N 
ATOM     19  H   LEU A   7      -4.085  -7.960  23.330  0.00  0.00    +0.150 HD
BRANCH  18  20
ATOM     20  CA  LEU A   7      -3.446  -9.818  22.399  0.00  0.00    +0.149 C 
BRANCH  20  21
ATOM     21  C   LEU A   7      -4.309 -10.648  21.443  0.00  0.00    +0.241 C 
ATOM     22  N   SER A   8      -5.495 -10.140  21.125  0.00  0.00    -0.296 N 
ATOM     23  H   SER A   8      -5.766  -9.220  21.527  0.00  0.00    +0.150 HD
ATOM     24  O   LEU A   7      -3.899 -11.722  21.003  0.00  0.00    -0.273 OA
BRANCH  22  25
ATOM     25  CA  SER A   8      -6.436 -10.817  20.235  0.00  0.00    +0.166 C 
BRANCH  25  26
ATOM     26  C   SER A   8      -5.828 -11.131  18.872  0.00  0.00    +0.229 C 
ATOM     27  O   SER A   8      -5.169 -10.284  18.274  0.00  0.00    -0.286 OA
ENDBRANCH  25  26
BRANCH  25  28
ATOM     28  CB  SER A   8      -7.671  -9.942  20.044  0.00  0.00    +0.165 C 
BRANCH  28  29
ATOM     29  OG  SER A   8      -8.153  -9.487  21.296  0.00  0.00    -0.380 OA
ATOM     30  H   SER A   8      -8.953  -8.922  21.155  0.00  0.00    +0.211 HD
ENDBRANCH  28  29
ENDBRANCH  25  28
ENDBRANCH  22  25
ENDBRANCH  20  21
BRANCH  20  31
ATOM     31  CB  LEU A   7      -2.524 -10.755  23.193  0.00  0.00    +0.029 C 
BRANCH  31  32
ATOM     32  CG  LEU A   7      -1.575 -10.100  24.205  0.00  0.00    +0.002 C 
ATOM     33  CD2 LEU A   7      -0.957 -11.166  25.102  0.00  0.00    +0.000 C 
ATOM     34  CD1 LEU A   7      -0.487  -9.323  23.469  0.00  0.00    +0.000 C 
ENDBRANCH  31  32
ENDBRANCH  20  31
ENDBRANCH  18  20
ENDBRANCH  12  16
ENDBRANCH   7   9
ENDBRANCH   1   2
BRANCH   1  37
ATOM     35  C   THR A   3       0.846  -6.312  22.109  0.00  0.00    +0.243 C 
ATOM     36  O   THR A   3       1.860  -6.398  22.808  0.00  0.00    -0.273 OA
ATOM     37  N   THR A   4      -0.327  -5.897  22.574  0.00  0.00    -0.295 N 
ATOM     38  H   THR A   4      -1.121  -5.798  21.910  0.00  0.00    +0.150 HD
BRANCH  35  39
ATOM     39  CA  THR A   3       0.889  -6.662  20.623  0.00  0.00    +0.176 C 
BRANCH  39  42
ATOM     40  C   LEU A   2      -1.208  -7.432  19.699  0.00  0.00    +0.241 C 
ATOM     41  O   LEU A   2      -0.964  -8.580  20.081  0.00  0.00    -0.273 OA
ATOM     42  N   THR A   3      -0.368  -6.421  19.915  0.00  0.00    -0.295 N 
ATOM     43  H   THR A   3      -0.605  -5.465  19.582  0.00  0.00    +0.150 HD
BRANCH  40  44
ATOM     44  CA  LEU A   2      -2.507  -7.148  18.940  0.00  0.00    +0.149 C 
BRANCH  44  46
ATOM     45  C   SER A   1      -2.079  -8.874  17.285  0.00  0.00    +0.241 C 
ATOM     46  N   LEU A   2      -2.800  -8.430  18.312  0.00  0.00    -0.297 N 
ATOM     47  H   LEU A   2      -3.586  -9.008  18.672  0.00  0.00    +0.150 HD
ATOM     48  O   SER A   1      -1.181  -8.218  16.760  0.00  0.00    -0.274 OA
BRANCH  45  49
ATOM     49  CA  SER A   1      -2.443 -10.263  16.778  0.00  0.00    +0.174 C 
BRANCH  49  50
ATOM     50  N   SER A   1      -1.614 -10.709  15.669  0.00  0.00    -0.236 NA
ATOM     51  H   SER A   1      -0.601 -10.472  15.662  0.00  0.00    +0.142 HD
ENDBRANCH  49  50
BRANCH  49  52
ATOM     52  CB  SER A   1      -2.291 -11.237  17.945  0.00  0.00    +0.163 C 
BRANCH  52  53
ATOM     53  OG  SER A   1      -0.997 -11.102  18.518  0.00  0.00    -0.380 OA
ATOM     54  H   SER A   1      -0.878 -10.176  18.846  0.00  0.00    +0.211 HD
ENDBRANCH  52  53
ENDBRANCH  49  52
ENDBRANCH  45  49
ENDBRANCH  44  46
BRANCH  44  55
ATOM     55  CB  LEU A   2      -3.623  -6.765  19.919  0.00  0.00    +0.029 C 
BRANCH  55  56
ATOM     56  CG  LEU A   2      -4.999  -6.471  19.302  0.00  0.00    +0.002 C 
ATOM     57  CD2 LEU A   2      -6.026  -6.194  20.396  0.00  0.00    +0.000 C 
ATOM     58  CD1 LEU A   2      -4.886  -5.281  18.371  0.00  0.00    +0.000 C 
ENDBRANCH  55  56
ENDBRANCH  44  55
ENDBRANCH  40  44
ENDBRANCH  39  42
BRANCH  39  59
ATOM     59  CB  THR A   3       2.057  -5.909  19.973  0.00  0.00    +0.137 C 
ATOM     60  CG2 THR A   3       2.148  -6.261  18.486  0.00  0.00    +0.034 C 
BRANCH  59  61
ATOM     61  OG1 THR A   3       1.866  -4.500  20.134  0.00  0.00    -0.382 OA
ATOM     62  HG1 THR A   3       2.620  -4.016  19.714  0.00  0.00    +0.210 HD
ENDBRANCH  59  61
ENDBRANCH  39  59
ENDBRANCH  35  39
ENDBRANCH   1  37
BRANCH   1  63
ATOM     63  CB  THR A   4      -0.737  -4.057  24.229  0.00  0.00    +0.137 C 
ATOM     64  CG2 THR A   4       0.483  -3.270  23.772  0.00  0.00    +0.034 C 
BRANCH  63  65
ATOM     65  OG1 THR A   4      -1.900  -3.598  23.529  0.00  0.00    -0.382 OA
ATOM     66  HG1 THR A   4      -1.785  -3.759  22.559  0.00  0.00    +0.210 HD
ENDBRANCH  63  65
ENDBRANCH   1  63
TORSDOF 26
REMARK  Name = ../refined-set-2016/3ml5/3ml5_pocket.pdb
REMARK  142 active torsions:
REMARK  status: ('A' for Active; 'I' for Inactive)
REMARK    1  A    between atoms: _1  and  _5
REMARK    2  A    between atoms: _5  and  _6
REMARK    3  A    between atoms: _8  and  _10
REMARK    4  A    between atoms: _10  and  _11
REMARK    5  A    between atoms: _10  and  _13
REMARK    6  A    between atoms: _13  and  _14
REMARK    7  A    between atoms: _24  and  _26
REMARK    8  A    between atoms: _26  and  _27
REMARK    9  A    between atoms: _26  and  _29
REMARK   10  A    between atoms: _29  and  _30
REMARK   11  A    between atoms: _35  and  _36
REMARK   12  A    between atoms: _38  and  _40
REMARK   13  A    between atoms: _40  and  _41
REMARK   14  A    between atoms: _40  and  _43
REMARK   15  A    between atoms: _43  and  _44
REMARK   16  A    between atoms: _47  and  _48
REMARK   17  A    between atoms: _53  and  _55
REMARK   18  A    between atoms: _55  and  _56
REMARK   19  A    between atoms: _55  and  _58
REMARK   20  A    between atoms: _58  and  _59
REMARK   21  A    between atoms: _61  and  _63
REMARK   22  A    between atoms: _63  and  _64
REMARK   23  A    between atoms: _63  and  _66
REMARK   24  A    between atoms: _66  and  _67
REMARK   25  A    between atoms: _67  and  _68
REMARK   26  A    between atoms: _73  and  _75
REMARK   27  A    between atoms: _75  and  _76
REMARK   28  A    between atoms: _75  and  _78
REMARK   29  A    between atoms: _78  and  _79
REMARK   30  A    between atoms: _79  and  _80
REMARK   31  A    between atoms: _80  and  _81
REMARK   32  A    between atoms: _81  and  _82
REMARK   33  A    between atoms: _86  and  _88
REMARK   34  A    between atoms: _88  and  _89
REMARK   35  A    between atoms: _88  and  _91
REMARK   36  A    between atoms: _91  and  _92
REMARK   37  A    between atoms: _92  and  _93
REMARK   38  A    between atoms: _98  and  _100
REMARK   39  A    between atoms: _100  and  _101
REMARK   40  A    between atoms: _100  and  _103
REMARK   41  A    between atoms: _103  and  _104
REMARK   42  A    between atoms: _110  and  _112
REMARK   43  A    between atoms: _123  and  _126
REMARK   44  A    between atoms: _126  and  _127
REMARK   45  A    between atoms: _135  and  _136
REMARK   46  A    between atoms: _144  and  _146
REMARK   47  A    between atoms: _146  and  _147
REMARK   48  A    between atoms: _146  and  _149
REMARK   49  A    between atoms: _149  and  _150
REMARK   50  A    between atoms: _150  and  _151
REMARK   51  A    between atoms: _154  and  _156
REMARK   52  A    between atoms: _156  and  _157
REMARK   53  A    between atoms: _156  and  _159
REMARK   54  A    between atoms: _159  and  _160
REMARK   55  A    between atoms: _165  and  _167
REMARK   56  A    between atoms: _167  and  _168
REMARK   57  A    between atoms: _167  and  _170
REMARK   58  A    between atoms: _170  and  _171
REMARK   59  A    between atoms: _171  and  _172
REMARK   60  A    between atoms: _175  and  _177
REMARK   61  A    between atoms: _177  and  _178
REMARK   62  A    between atoms: _177  and  _180
REMARK   63  A    between atoms: _180  and  _181
REMARK   64  A    between atoms: _184  and  _186
REMARK   65  A    between atoms: _186  and  _187
REMARK   66  A    between atoms: _186  and  _189
REMARK   67  A    between atoms: _189  and  _190
REMARK   68  A    between atoms: _191  and  ZN_395
REMARK   69  A    between atoms: _195  and  _197
REMARK   70  A    between atoms: _197  and  _198
REMARK   71  A    between atoms: _197  and  _200
REMARK   72  A    between atoms: _200  and  _201
REMARK   73  A    between atoms: _204  and  _206
REMARK   74  A    between atoms: _206  and  _207
REMARK   75  A    between atoms: _206  and  _209
REMARK   76  A    between atoms: _212  and  _214
REMARK   77  A    between atoms: _214  and  _215
REMARK   78  A    between atoms: _214  and  _217
REMARK   79  A    between atoms: _217  and  _218
REMARK   80  A    between atoms: _223  and  _225
REMARK   81  A    between atoms: _225  and  _226
REMARK   82  A    between atoms: _225  and  _228
REMARK   83  A    between atoms: _228  and  _229
REMARK   84  A    between atoms: _235  and  _237
REMARK   85  A    between atoms: _237  and  _238
REMARK   86  A    between atoms: _240  and  _242
REMARK   87  A    between atoms: _242  and  _243
REMARK   88  A    between atoms: _246  and  _248
REMARK   89  A    between atoms: _248  and  _249
REMARK   90  A    between atoms: _248  and  _251
REMARK   91  A    between atoms: _251  and  _252
REMARK   92  A    between atoms: _255  and  _257
REMARK   93  A    between atoms: _257  and  _258
REMARK   94  A    between atoms: _261  and  _263
REMARK   95  A    between atoms: _263  and  _264
REMARK   96  A    between atoms: _263  and  _266
REMARK   97  A    between atoms: _269  and  _271
REMARK   98  A    between atoms: _271  and  _272
REMARK   99  A    between atoms: _271  and  _274
REMARK  100  A    between atoms: _277  and  _279
REMARK  101  A    between atoms: _279  and  _280
REMARK  102  A    between atoms: _279  and  _282
REMARK  103  A    between atoms: _282  and  _283
REMARK  104  A    between atoms: _285  and  _287
REMARK  105  A    between atoms: _287  and  _288
REMARK  106  A    between atoms: _287  and  _290
REMARK  107  A    between atoms: _290  and  _291
REMARK  108  A    between atoms: _294  and  _296
REMARK  109  A    between atoms: _296  and  _297
REMARK  110  A    between atoms: _296  and  _299
REMARK  111  A    between atoms: _299  and  _300
REMARK  112  A    between atoms: _303  and  _305
REMARK  113  A    between atoms: _305  and  _306
REMARK  114  A    between atoms: _305  and  _308
REMARK  115  A    between atoms: _308  and  _309
REMARK  116  A    between atoms: _313  and  _314
REMARK  117  A    between atoms: _320  and  _321
REMARK  118  A    between atoms: _326  and  _328
REMARK  119  A    between atoms: _328  and  _329
REMARK  120  A    between atoms: _328  and  _331
REMARK  121  A    between atoms: _331  and  _332
REMARK  122  A    between atoms: _335  and  _337
REMARK  123  A    between atoms: _337  and  _338
REMARK  124  A    between atoms: _337  and  _340
REMARK  125  A    between atoms: _340  and  _341
REMARK  126  A    between atoms: _343  and  _345
REMARK  127  A    between atoms: _345  and  _346
REMARK  128  A    between atoms: _345  and  _348
REMARK  129  A    between atoms: _351  and  _353
REMARK  130  A    between atoms: _353  and  _354
REMARK  131  A    between atoms: _353  and  _356
REMARK  132  A    between atoms: _356  and  _357
REMARK  133  A    between atoms: _367  and  _369
REMARK  134  A    between atoms: _369  and  _370
REMARK  135  A    between atoms: _369  and  _372
REMARK  136  A    between atoms: _372  and  _373
REMARK  137  A    between atoms: _378  and  _380
REMARK  138  A    between atoms: _380  and  _381
REMARK  139  A    between atoms: _380  and  _383
REMARK  140  A    between atoms: _383  and  _384
REMARK  141  A    between atoms: _384  and  _385
REMARK  142  A    between atoms: _385  and  _386
REMARK                            x       y       z     vdW  Elec       q    Type
REMARK                         _______ _______ _______ _____ _____    ______ ____
ROOT
ATOM      1  CA  VAL A   1      -4.996  -8.518  13.146  0.00  0.00    +0.133 C 
ENDROOT
BRANCH   1   2
ATOM      2  CB  VAL A   1      -3.917  -7.833  14.023  0.00  0.00    +0.023 C 
ATOM      3  CG2 VAL A   1      -4.565  -7.168  15.241  0.00  0.00    +0.002 C 
ATOM      4  CG1 VAL A   1      -3.138  -6.814  13.192  0.00  0.00    +0.002 C 
ENDBRANCH   1   2
BRANCH   1   5
ATOM      5  N   VAL A   1      -5.713  -9.529  13.909  0.00  0.00    -0.239 NA
ATOM      6  H   VAL A   1      -5.180 -10.246  14.442  0.00  0.00    +0.142 HD
ENDBRANCH   1   5
BRANCH   1   7
ATOM      7  C   VAL A   1      -4.306  -8.950  11.867  0.00  0.00    +0.224 C 
ATOM      8  O   VAL A   1      -3.502  -9.888  11.860  0.00  0.00    -0.287 OA
ENDBRANCH   1   7
TORSDOF 3
REMARK  Name = ../refined-set-2016/3ml5/3ml5_pocket.pdb
REMARK  142 active torsions:
REMARK  status: ('A' for Active; 'I' for Inactive)
REMARK    1  A    between atoms: _1  and  _5
REMARK    2  A    between atoms: _5  and  _6
REMARK    3  A    between atoms: _8  and  _10
REMARK    4  A    between atoms: _10  and  _11
REMARK    5  A    between atoms: _10  and  _13
REMARK    6  A    between atoms: _13  and  _14
REMARK    7  A    between atoms: _24  and  _26
REMARK    8  A    between atoms: _26  and  _27
REMARK    9  A    between atoms: _26  and  _29
REMARK   10  A    between atoms: _29  and  _30
REMARK   11  A    between atoms: _35  and  _36
REMARK   12  A    between atoms: _38  and  _40
REMARK   13  A    between atoms: _40  and  _41
REMARK   14  A    between atoms: _40  and  _43
REMARK   15  A    between atoms: _43  and  _44
REMARK   16  A    between atoms: _47  and  _48
REMARK   17  A    between atoms: _53  and  _55
REMARK   18  A    between atoms: _55  and  _56
REMARK   19  A    between atoms: _55  and  _58
REMARK   20  A    between atoms: _58  and  _59
REMARK   21  A    between atoms: _61  and  _63
REMARK   22  A    between atoms: _63  and  _64
REMARK   23  A    between atoms: _63  and  _66
REMARK   24  A    between atoms: _66  and  _67
REMARK   25  A    between atoms: _67  and  _68
REMARK   26  A    between atoms: _73  and  _75
REMARK   27  A    between atoms: _75  and  _76
REMARK   28  A    between atoms: _75  and  _78
REMARK   29  A    between atoms: _78  and  _79
REMARK   30  A    between atoms: _79  and  _80
REMARK   31  A    between atoms: _80  and  _81
REMARK   32  A    between atoms: _81  and  _82
REMARK   33  A    between atoms: _86  and  _88
REMARK   34  A    between atoms: _88  and  _89
REMARK   35  A    between atoms: _88  and  _91
REMARK   36  A    between atoms: _91  and  _92
REMARK   37  A    between atoms: _92  and  _93
REMARK   38  A    between atoms: _98  and  _100
REMARK   39  A    between atoms: _100  and  _101
REMARK   40  A    between atoms: _100  and  _103
REMARK   41  A    between atoms: _103  and  _104
REMARK   42  A    between atoms: _110  and  _112
REMARK   43  A    between atoms: _123  and  _126
REMARK   44  A    between atoms: _126  and  _127
REMARK   45  A    between atoms: _135  and  _136
REMARK   46  A    between atoms: _144  and  _146
REMARK   47  A    between atoms: _146  and  _147
REMARK   48  A    between atoms: _146  and  _149
REMARK   49  A    between atoms: _149  and  _150
REMARK   50  A    between atoms: _150  and  _151
REMARK   51  A    between atoms: _154  and  _156
REMARK   52  A    between atoms: _156  and  _157
REMARK   53  A    between atoms: _156  and  _159
REMARK   54  A    between atoms: _159  and  _160
REMARK   55  A    between atoms: _165  and  _167
REMARK   56  A    between atoms: _167  and  _168
REMARK   57  A    between atoms: _167  and  _170
REMARK   58  A    between atoms: _170  and  _171
REMARK   59  A    between atoms: _171  and  _172
REMARK   60  A    between atoms: _175  and  _177
REMARK   61  A    between atoms: _177  and  _178
REMARK   62  A    between atoms: _177  and  _180
REMARK   63  A    between atoms: _180  and  _181
REMARK   64  A    between atoms: _184  and  _186
REMARK   65  A    between atoms: _186  and  _187
REMARK   66  A    between atoms: _186  and  _189
REMARK   67  A    between atoms: _189  and  _190
REMARK   68  A    between atoms: _191  and  ZN_395
REMARK   69  A    between atoms: _195  and  _197
REMARK   70  A    between atoms: _197  and  _198
REMARK   71  A    between atoms: _197  and  _200
REMARK   72  A    between atoms: _200  and  _201
REMARK   73  A    between atoms: _204  and  _206
REMARK   74  A    between atoms: _206  and  _207
REMARK   75  A    between atoms: _206  and  _209
REMARK   76  A    between atoms: _212  and  _214
REMARK   77  A    between atoms: _214  and  _215
REMARK   78  A    between atoms: _214  and  _217
REMARK   79  A    between atoms: _217  and  _218
REMARK   80  A    between atoms: _223  and  _225
REMARK   81  A    between atoms: _225  and  _226
REMARK   82  A    between atoms: _225  and  _228
REMARK   83  A    between atoms: _228  and  _229
REMARK   84  A    between atoms: _235  and  _237
REMARK   85  A    between atoms: _237  and  _238
REMARK   86  A    between atoms: _240  and  _242
REMARK   87  A    between atoms: _242  and  _243
REMARK   88  A    between atoms: _246  and  _248
REMARK   89  A    between atoms: _248  and  _249
REMARK   90  A    between atoms: _248  and  _251
REMARK   91  A    between atoms: _251  and  _252
REMARK   92  A    between atoms: _255  and  _257
REMARK   93  A    between atoms: _257  and  _258
REMARK   94  A    between atoms: _261  and  _263
REMARK   95  A    between atoms: _263  and  _264
REMARK   96  A    between atoms: _263  and  _266
REMARK   97  A    between atoms: _269  and  _271
REMARK   98  A    between atoms: _271  and  _272
REMARK   99  A    between atoms: _271  and  _274
REMARK  100  A    between atoms: _277  and  _279
REMARK  101  A    between atoms: _279  and  _280
REMARK  102  A    between atoms: _279  and  _282
REMARK  103  A    between atoms: _282  and  _283
REMARK  104  A    between atoms: _285  and  _287
REMARK  105  A    between atoms: _287  and  _288
REMARK  106  A    between atoms: _287  and  _290
REMARK  107  A    between atoms: _290  and  _291
REMARK  108  A    between atoms: _294  and  _296
REMARK  109  A    between atoms: _296  and  _297
REMARK  110  A    between atoms: _296  and  _299
REMARK  111  A    between atoms: _299  and  _300
REMARK  112  A    between atoms: _303  and  _305
REMARK  113  A    between atoms: _305  and  _306
REMARK  114  A    between atoms: _305  and  _308
REMARK  115  A    between atoms: _308  and  _309
REMARK  116  A    between atoms: _313  and  _314
REMARK  117  A    between atoms: _320  and  _321
REMARK  118  A    between atoms: _326  and  _328
REMARK  119  A    between atoms: _328  and  _329
REMARK  120  A    between atoms: _328  and  _331
REMARK  121  A    between atoms: _331  and  _332
REMARK  122  A    between atoms: _335  and  _337
REMARK  123  A    between atoms: _337  and  _338
REMARK  124  A    between atoms: _337  and  _340
REMARK  125  A    between atoms: _340  and  _341
REMARK  126  A    between atoms: _343  and  _345
REMARK  127  A    between atoms: _345  and  _346
REMARK  128  A    between atoms: _345  and  _348
REMARK  129  A    between atoms: _351  and  _353
REMARK  130  A    between atoms: _353  and  _354
REMARK  131  A    between atoms: _353  and  _356
REMARK  132  A    between atoms: _356  and  _357
REMARK  133  A    between atoms: _367  and  _369
REMARK  134  A    between atoms: _369  and  _370
REMARK  135  A    between atoms: _369  and  _372
REMARK  136  A    between atoms: _372  and  _373
REMARK  137  A    between atoms: _378  and  _380
REMARK  138  A    between atoms: _380  and  _381
REMARK  139  A    between atoms: _380  and  _383
REMARK  140  A    between atoms: _383  and  _384
REMARK  141  A    between atoms: _384  and  _385
REMARK  142  A    between atoms: _385  and  _386
REMARK                            x       y       z     vdW  Elec       q    Type
REMARK                         _______ _______ _______ _____ _____    ______ ____
ROOT
ATOM      1  CG  TRP A   1       0.483  -7.322  12.065  0.00  0.00    -0.002 A 
ATOM      2  CD1 TRP A   1      -0.028  -8.210  12.964  0.00  0.00    +0.068 A 
ATOM      3  NE1 TRP A   1      -0.084  -7.638  14.217  0.00  0.00    -0.352 N 
ATOM      4  HE1 TRP A   1      -0.434  -8.102  15.079  0.00  0.00    +0.166 HD
ATOM      5  CE2 TRP A   1       0.398  -6.356  14.140  0.00  0.00    +0.056 A 
ATOM      6  CZ2 TRP A   1       0.542  -5.382  15.136  0.00  0.00    +0.017 A 
ATOM      7  CH2 TRP A   1       1.061  -4.169  14.766  0.00  0.00    +0.001 A 
ATOM      8  CZ3 TRP A   1       1.443  -3.910  13.435  0.00  0.00    +0.000 A 
ATOM      9  CE3 TRP A   1       1.301  -4.875  12.448  0.00  0.00    +0.001 A 
ATOM     10  CD2 TRP A   1       0.770  -6.125  12.799  0.00  0.00    +0.013 A 
ENDROOT
BRANCH   1  11
ATOM     11  CB  TRP A   1       0.633  -7.515  10.586  0.00  0.00    +0.053 C 
BRANCH  11  12
ATOM     12  CA  TRP A   1      -0.532  -6.924   9.784  0.00  0.00    +0.137 C 
BRANCH  12  13
ATOM     13  N   TRP A   1      -1.642  -7.855   9.745  0.00  0.00    -0.239 NA
ATOM     14  H   TRP A   1      -1.466  -8.869   9.892  0.00  0.00    +0.142 HD
ENDBRANCH  12  13
BRANCH  12  15
ATOM     15  C   TRP A   1      -0.036  -6.504   8.405  0.00  0.00    +0.224 C 
ATOM     16  O   TRP A   1       0.070  -7.316   7.486  0.00  0.00    -0.287 OA
ENDBRANCH  12  15
ENDBRANCH  11  12
ENDBRANCH   1  11
TORSDOF 4
REMARK  Name = ../refined-set-2016/3ml5/3ml5_pocket.pdb
REMARK  142 active torsions:
REMARK  status: ('A' for Active; 'I' for Inactive)
REMARK    1  A    between atoms: _1  and  _5
REMARK    2  A    between atoms: _5  and  _6
REMARK    3  A    between atoms: _8  and  _10
REMARK    4  A    between atoms: _10  and  _11
REMARK    5  A    between atoms: _10  and  _13
REMARK    6  A    between atoms: _13  and  _14
REMARK    7  A    between atoms: _24  and  _26
REMARK    8  A    between atoms: _26  and  _27
REMARK    9  A    between atoms: _26  and  _29
REMARK   10  A    between atoms: _29  and  _30
REMARK   11  A    between atoms: _35  and  _36
REMARK   12  A    between atoms: _38  and  _40
REMARK   13  A    between atoms: _40  and  _41
REMARK   14  A    between atoms: _40  and  _43
REMARK   15  A    between atoms: _43  and  _44
REMARK   16  A    between atoms: _47  and  _48
REMARK   17  A    between atoms: _53  and  _55
REMARK   18  A    between atoms: _55  and  _56
REMARK   19  A    between atoms: _55  and  _58
REMARK   20  A    between atoms: _58  and  _59
REMARK   21  A    between atoms: _61  and  _63
REMARK   22  A    between atoms: _63  and  _64
REMARK   23  A    between atoms: _63  and  _66
REMARK   24  A    between atoms: _66  and  _67
REMARK   25  A    between atoms: _67  and  _68
REMARK   26  A    between atoms: _73  and  _75
REMARK   27  A    between atoms: _75  and  _76
REMARK   28  A    between atoms: _75  and  _78
REMARK   29  A    between atoms: _78  and  _79
REMARK   30  A    between atoms: _79  and  _80
REMARK   31  A    between atoms: _80  and  _81
REMARK   32  A    between atoms: _81  and  _82
REMARK   33  A    between atoms: _86  and  _88
REMARK   34  A    between atoms: _88  and  _89
REMARK   35  A    between atoms: _88  and  _91
REMARK   36  A    between atoms: _91  and  _92
REMARK   37  A    between atoms: _92  and  _93
REMARK   38  A    between atoms: _98  and  _100
REMARK   39  A    between atoms: _100  and  _101
REMARK   40  A    between atoms: _100  and  _103
REMARK   41  A    between atoms: _103  and  _104
REMARK   42  A    between atoms: _110  and  _112
REMARK   43  A    between atoms: _123  and  _126
REMARK   44  A    between atoms: _126  and  _127
REMARK   45  A    between atoms: _135  and  _136
REMARK   46  A    between atoms: _144  and  _146
REMARK   47  A    between atoms: _146  and  _147
REMARK   48  A    between atoms: _146  and  _149
REMARK   49  A    between atoms: _149  and  _150
REMARK   50  A    between atoms: _150  and  _151
REMARK   51  A    between atoms: _154  and  _156
REMARK   52  A    between atoms: _156  and  _157
REMARK   53  A    between atoms: _156  and  _159
REMARK   54  A    between atoms: _159  and  _160
REMARK   55  A    between atoms: _165  and  _167
REMARK   56  A    between atoms: _167  and  _168
REMARK   57  A    between atoms: _167  and  _170
REMARK   58  A    between atoms: _170  and  _171
REMARK   59  A    between atoms: _171  and  _172
REMARK   60  A    between atoms: _175  and  _177
REMARK   61  A    between atoms: _177  and  _178
REMARK   62  A    between atoms: _177  and  _180
REMARK   63  A    between atoms: _180  and  _181
REMARK   64  A    between atoms: _184  and  _186
REMARK   65  A    between atoms: _186  and  _187
REMARK   66  A    between atoms: _186  and  _189
REMARK   67  A    between atoms: _189  and  _190
REMARK   68  A    between atoms: _191  and  ZN_395
REMARK   69  A    between atoms: _195  and  _197
REMARK   70  A    between atoms: _197  and  _198
REMARK   71  A    between atoms: _197  and  _200
REMARK   72  A    between atoms: _200  and  _201
REMARK   73  A    between atoms: _204  and  _206
REMARK   74  A    between atoms: _206  and  _207
REMARK   75  A    between atoms: _206  and  _209
REMARK   76  A    between atoms: _212  and  _214
REMARK   77  A    between atoms: _214  and  _215
REMARK   78  A    between atoms: _214  and  _217
REMARK   79  A    between atoms: _217  and  _218
REMARK   80  A    between atoms: _223  and  _225
REMARK   81  A    between atoms: _225  and  _226
REMARK   82  A    between atoms: _225  and  _228
REMARK   83  A    between atoms: _228  and  _229
REMARK   84  A    between atoms: _235  and  _237
REMARK   85  A    between atoms: _237  and  _238
REMARK   86  A    between atoms: _240  and  _242
REMARK   87  A    between atoms: _242  and  _243
REMARK   88  A    between atoms: _246  and  _248
REMARK   89  A    between atoms: _248  and  _249
REMARK   90  A    between atoms: _248  and  _251
REMARK   91  A    between atoms: _251  and  _252
REMARK   92  A    between atoms: _255  and  _257
REMARK   93  A    between atoms: _257  and  _258
REMARK   94  A    between atoms: _261  and  _263
REMARK   95  A    between atoms: _263  and  _264
REMARK   96  A    between atoms: _263  and  _266
REMARK   97  A    between atoms: _269  and  _271
REMARK   98  A    between atoms: _271  and  _272
REMARK   99  A    between atoms: _271  and  _274
REMARK  100  A    between atoms: _277  and  _279
REMARK  101  A    between atoms: _279  and  _280
REMARK  102  A    between atoms: _279  and  _282
REMARK  103  A    between atoms: _282  and  _283
REMARK  104  A    between atoms: _285  and  _287
REMARK  105  A    between atoms: _287  and  _288
REMARK  106  A    between atoms: _287  and  _290
REMARK  107  A    between atoms: _290  and  _291
REMARK  108  A    between atoms: _294  and  _296
REMARK  109  A    between atoms: _296  and  _297
REMARK  110  A    between atoms: _296  and  _299
REMARK  111  A    between atoms: _299  and  _300
REMARK  112  A    between atoms: _303  and  _305
REMARK  113  A    between atoms: _305  and  _306
REMARK  114  A    between atoms: _305  and  _308
REMARK  115  A    between atoms: _308  and  _309
REMARK  116  A    between atoms: _313  and  _314
REMARK  117  A    between atoms: _320  and  _321
REMARK  118  A    between atoms: _326  and  _328
REMARK  119  A    between atoms: _328  and  _329
REMARK  120  A    between atoms: _328  and  _331
REMARK  121  A    between atoms: _331  and  _332
REMARK  122  A    between atoms: _335  and  _337
REMARK  123  A    between atoms: _337  and  _338
REMARK  124  A    between atoms: _337  and  _340
REMARK  125  A    between atoms: _340  and  _341
REMARK  126  A    between atoms: _343  and  _345
REMARK  127  A    between atoms: _345  and  _346
REMARK  128  A    between atoms: _345  and  _348
REMARK  129  A    between atoms: _351  and  _353
REMARK  130  A    between atoms: _353  and  _354
REMARK  131  A    between atoms: _353  and  _356
REMARK  132  A    between atoms: _356  and  _357
REMARK  133  A    between atoms: _367  and  _369
REMARK  134  A    between atoms: _369  and  _370
REMARK  135  A    between atoms: _369  and  _372
REMARK  136  A    between atoms: _372  and  _373
REMARK  137  A    between atoms: _378  and  _380
REMARK  138  A    between atoms: _380  and  _381
REMARK  139  A    between atoms: _380  and  _383
REMARK  140  A    between atoms: _383  and  _384
REMARK  141  A    between atoms: _384  and  _385
REMARK  142  A    between atoms: _385  and  _386
REMARK                            x       y       z     vdW  Elec       q    Type
REMARK                         _______ _______ _______ _____ _____    ______ ____
ROOT
ATOM      1  CB  ASN A   1       6.395   1.040  25.842  0.00  0.00    +0.110 C 
ENDROOT
BRANCH   1   2
ATOM      2  CG  ASN A   1       6.563   1.972  24.644  0.00  0.00    +0.221 C 
ATOM      3  ND2 ASN A   1       5.521   2.742  24.345  0.00  0.00    -0.329 N 
ATOM      4 HD21 ASN A   1       4.646   2.672  24.903  0.00  0.00    +0.145 HD
ATOM      5 HD22 ASN A   1       5.581   3.414  23.553  0.00  0.00    +0.145 HD
ATOM      6  OD1 ASN A   1       7.619   2.017  24.015  0.00  0.00    -0.275 OA
ENDBRANCH   1   2
BRANCH   1   7
ATOM      7  CA  ASN A   1       7.286  -0.214  25.763  0.00  0.00    +0.142 C 
BRANCH   7   8
ATOM      8  N   ASN A   1       8.687   0.169  25.707  0.00  0.00    -0.239 NA
ATOM      9  H   ASN A   1       8.955   1.036  25.199  0.00  0.00    +0.142 HD
ENDBRANCH   7   8
BRANCH   7  10
ATOM     10  C   ASN A   1       6.976  -1.036  24.511  0.00  0.00    +0.225 C 
ATOM     11  O   ASN A   1       6.087  -0.701  23.727  0.00  0.00    -0.287 OA
ENDBRANCH   7  10
ENDBRANCH   1   7
TORSDOF 4
REMARK  Name = ../refined-set-2016/3ml5/3ml5_pocket.pdb
REMARK  142 active torsions:
REMARK  status: ('A' for Active; 'I' for Inactive)
REMARK    1  A    between atoms: _1  and  _5
REMARK    2  A    between atoms: _5  and  _6
REMARK    3  A    between atoms: _8  and  _10
REMARK    4  A    between atoms: _10  and  _11
REMARK    5  A    between atoms: _10  and  _13
REMARK    6  A    between atoms: _13  and  _14
REMARK    7  A    between atoms: _24  and  _26
REMARK    8  A    between atoms: _26  and  _27
REMARK    9  A    between atoms: _26  and  _29
REMARK   10  A    between atoms: _29  and  _30
REMARK   11  A    between atoms: _35  and  _36
REMARK   12  A    between atoms: _38  and  _40
REMARK   13  A    between atoms: _40  and  _41
REMARK   14  A    between atoms: _40  and  _43
REMARK   15  A    between atoms: _43  and  _44
REMARK   16  A    between atoms: _47  and  _48
REMARK   17  A    between atoms: _53  and  _55
REMARK   18  A    between atoms: _55  and  _56
REMARK   19  A    between atoms: _55  and  _58
REMARK   20  A    between atoms: _58  and  _59
REMARK   21  A    between atoms: _61  and  _63
REMARK   22  A    between atoms: _63  and  _64
REMARK   23  A    between atoms: _63  and  _66
REMARK   24  A    between atoms: _66  and  _67
REMARK   25  A    between atoms: _67  and  _68
REMARK   26  A    between atoms: _73  and  _75
REMARK   27  A    between atoms: _75  and  _76
REMARK   28  A    between atoms: _75  and  _78
REMARK   29  A    between atoms: _78  and  _79
REMARK   30  A    between atoms: _79  and  _80
REMARK   31  A    between atoms: _80  and  _81
REMARK   32  A    between atoms: _81  and  _82
REMARK   33  A    between atoms: _86  and  _88
REMARK   34  A    between atoms: _88  and  _89
REMARK   35  A    between atoms: _88  and  _91
REMARK   36  A    between atoms: _91  and  _92
REMARK   37  A    between atoms: _92  and  _93
REMARK   38  A    between atoms: _98  and  _100
REMARK   39  A    between atoms: _100  and  _101
REMARK   40  A    between atoms: _100  and  _103
REMARK   41  A    between atoms: _103  and  _104
REMARK   42  A    between atoms: _110  and  _112
REMARK   43  A    between atoms: _123  and  _126
REMARK   44  A    between atoms: _126  and  _127
REMARK   45  A    between atoms: _135  and  _136
REMARK   46  A    between atoms: _144  and  _146
REMARK   47  A    between atoms: _146  and  _147
REMARK   48  A    between atoms: _146  and  _149
REMARK   49  A    between atoms: _149  and  _150
REMARK   50  A    between atoms: _150  and  _151
REMARK   51  A    between atoms: _154  and  _156
REMARK   52  A    between atoms: _156  and  _157
REMARK   53  A    between atoms: _156  and  _159
REMARK   54  A    between atoms: _159  and  _160
REMARK   55  A    between atoms: _165  and  _167
REMARK   56  A    between atoms: _167  and  _168
REMARK   57  A    between atoms: _167  and  _170
REMARK   58  A    between atoms: _170  and  _171
REMARK   59  A    between atoms: _171  and  _172
REMARK   60  A    between atoms: _175  and  _177
REMARK   61  A    between atoms: _177  and  _178
REMARK   62  A    between atoms: _177  and  _180
REMARK   63  A    between atoms: _180  and  _181
REMARK   64  A    between atoms: _184  and  _186
REMARK   65  A    between atoms: _186  and  _187
REMARK   66  A    between atoms: _186  and  _189
REMARK   67  A    between atoms: _189  and  _190
REMARK   68  A    between atoms: _191  and  ZN_395
REMARK   69  A    between atoms: _195  and  _197
REMARK   70  A    between atoms: _197  and  _198
REMARK   71  A    between atoms: _197  and  _200
REMARK   72  A    between atoms: _200  and  _201
REMARK   73  A    between atoms: _204  and  _206
REMARK   74  A    between atoms: _206  and  _207
REMARK   75  A    between atoms: _206  and  _209
REMARK   76  A    between atoms: _212  and  _214
REMARK   77  A    between atoms: _214  and  _215
REMARK   78  A    between atoms: _214  and  _217
REMARK   79  A    between atoms: _217  and  _218
REMARK   80  A    between atoms: _223  and  _225
REMARK   81  A    between atoms: _225  and  _226
REMARK   82  A    between atoms: _225  and  _228
REMARK   83  A    between atoms: _228  and  _229
REMARK   84  A    between atoms: _235  and  _237
REMARK   85  A    between atoms: _237  and  _238
REMARK   86  A    between atoms: _240  and  _242
REMARK   87  A    between atoms: _242  and  _243
REMARK   88  A    between atoms: _246  and  _248
REMARK   89  A    between atoms: _248  and  _249
REMARK   90  A    between atoms: _248  and  _251
REMARK   91  A    between atoms: _251  and  _252
REMARK   92  A    between atoms: _255  and  _257
REMARK   93  A    between atoms: _257  and  _258
REMARK   94  A    between atoms: _261  and  _263
REMARK   95  A    between atoms: _263  and  _264
REMARK   96  A    between atoms: _263  and  _266
REMARK   97  A    between atoms: _269  and  _271
REMARK   98  A    between atoms: _271  and  _272
REMARK   99  A    between atoms: _271  and  _274
REMARK  100  A    between atoms: _277  and  _279
REMARK  101  A    between atoms: _279  and  _280
REMARK  102  A    between atoms: _279  and  _282
REMARK  103  A    between atoms: _282  and  _283
REMARK  104  A    between atoms: _285  and  _287
REMARK  105  A    between atoms: _287  and  _288
REMARK  106  A    between atoms: _287  and  _290
REMARK  107  A    between atoms: _290  and  _291
REMARK  108  A    between atoms: _294  and  _296
REMARK  109  A    between atoms: _296  and  _297
REMARK  110  A    between atoms: _296  and  _299
REMARK  111  A    between atoms: _299  and  _300
REMARK  112  A    between atoms: _303  and  _305
REMARK  113  A    between atoms: _305  and  _306
REMARK  114  A    between atoms: _305  and  _308
REMARK  115  A    between atoms: _308  and  _309
REMARK  116  A    between atoms: _313  and  _314
REMARK  117  A    between atoms: _320  and  _321
REMARK  118  A    between atoms: _326  and  _328
REMARK  119  A    between atoms: _328  and  _329
REMARK  120  A    between atoms: _328  and  _331
REMARK  121  A    between atoms: _331  and  _332
REMARK  122  A    between atoms: _335  and  _337
REMARK  123  A    between atoms: _337  and  _338
REMARK  124  A    between atoms: _337  and  _340
REMARK  125  A    between atoms: _340  and  _341
REMARK  126  A    between atoms: _343  and  _345
REMARK  127  A    between atoms: _345  and  _346
REMARK  128  A    between atoms: _345  and  _348
REMARK  129  A    between atoms: _351  and  _353
REMARK  130  A    between atoms: _353  and  _354
REMARK  131  A    between atoms: _353  and  _356
REMARK  132  A    between atoms: _356  and  _357
REMARK  133  A    between atoms: _367  and  _369
REMARK  134  A    between atoms: _369  and  _370
REMARK  135  A    between atoms: _369  and  _372
REMARK  136  A    between atoms: _372  and  _373
REMARK  137  A    between atoms: _378  and  _380
REMARK  138  A    between atoms: _380  and  _381
REMARK  139  A    between atoms: _380  and  _383
REMARK  140  A    between atoms: _383  and  _384
REMARK  141  A    between atoms: _384  and  _385
REMARK  142  A    between atoms: _385  and  _386
REMARK                            x       y       z     vdW  Elec       q    Type
REMARK                         _______ _______ _______ _____ _____    ______ ____
ROOT
ATOM      1  NE  ARG A   1       3.566 -10.591  23.155  0.00  0.00    -0.265 N 
ATOM      2  HE  ARG A   1       4.057 -10.809  24.046  0.00  0.00    +0.259 HD
ATOM      3  CZ  ARG A   1       2.664 -11.469  22.723  0.00  0.00    +0.342 C 
ATOM      4  NH2 ARG A   1       2.412 -12.557  23.439  0.00  0.00    -0.292 N 
ATOM      5 HH21 ARG A   1       2.918 -12.720  24.333  0.00  0.00    +0.255 HD
ATOM      6 HH22 ARG A   1       1.708 -13.247  23.107  0.00  0.00    +0.255 HD
ATOM      7  NH1 ARG A   1       2.005 -11.259  21.593  0.00  0.00    -0.292 N 
ATOM      8 HH11 ARG A   1       1.302 -11.952  21.264  0.00  0.00    +0.255 HD
ATOM      9 HH12 ARG A   1       2.191 -10.402  21.034  0.00  0.00    +0.255 HD
ENDROOT
BRANCH   1  10
ATOM     10  CD  ARG A   1       3.922  -9.345  22.478  0.00  0.00    +0.174 C 
BRANCH  10  11
ATOM     11  CG  ARG A   1       5.164  -8.710  23.118  0.00  0.00    +0.045 C 
BRANCH  11  12
ATOM     12  CB  ARG A   1       5.378  -7.257  22.688  0.00  0.00    +0.029 C 
BRANCH  12  13
ATOM     13  CA  ARG A   1       6.780  -6.713  23.000  0.00  0.00    +0.133 C 
BRANCH  13  14
ATOM     14  N   ARG A   1       6.855  -5.275  22.752  0.00  0.00    -0.239 NA
ATOM     15  H   ARG A   1       6.369  -4.879  21.923  0.00  0.00    +0.142 HD
ENDBRANCH  13  14
BRANCH  13  16
ATOM     16  C   ARG A   1       7.791  -7.366  22.067  0.00  0.00    +0.224 C 
ATOM     17  O   ARG A   1       7.865  -7.020  20.892  0.00  0.00    -0.287 OA
ENDBRANCH  13  16
ENDBRANCH  12  13
ENDBRANCH  11  12
ENDBRANCH  10  11
ENDBRANCH   1  10
TORSDOF 6
REMARK  Name = ../refined-set-2016/3ml5/3ml5_pocket.pdb
REMARK  142 active torsions:
REMARK  status: ('A' for Active; 'I' for Inactive)
REMARK    1  A    between atoms: _1  and  _5
REMARK    2  A    between atoms: _5  and  _6
REMARK    3  A    between atoms: _8  and  _10
REMARK    4  A    between atoms: _10  and  _11
REMARK    5  A    between atoms: _10  and  _13
REMARK    6  A    between atoms: _13  and  _14
REMARK    7  A    between atoms: _24  and  _26
REMARK    8  A    between atoms: _26  and  _27
REMARK    9  A    between atoms: _26  and  _29
REMARK   10  A    between atoms: _29  and  _30
REMARK   11  A    between atoms: _35  and  _36
REMARK   12  A    between atoms: _38  and  _40
REMARK   13  A    between atoms: _40  and  _41
REMARK   14  A    between atoms: _40  and  _43
REMARK   15  A    between atoms: _43  and  _44
REMARK   16  A    between atoms: _47  and  _48
REMARK   17  A    between atoms: _53  and  _55
REMARK   18  A    between atoms: _55  and  _56
REMARK   19  A    between atoms: _55  and  _58
REMARK   20  A    between atoms: _58  and  _59
REMARK   21  A    between atoms: _61  and  _63
REMARK   22  A    between atoms: _63  and  _64
REMARK   23  A    between atoms: _63  and  _66
REMARK   24  A    between atoms: _66  and  _67
REMARK   25  A    between atoms: _67  and  _68
REMARK   26  A    between atoms: _73  and  _75
REMARK   27  A    between atoms: _75  and  _76
REMARK   28  A    between atoms: _75  and  _78
REMARK   29  A    between atoms: _78  and  _79
REMARK   30  A    between atoms: _79  and  _80
REMARK   31  A    between atoms: _80  and  _81
REMARK   32  A    between atoms: _81  and  _82
REMARK   33  A    between atoms: _86  and  _88
REMARK   34  A    between atoms: _88  and  _89
REMARK   35  A    between atoms: _88  and  _91
REMARK   36  A    between atoms: _91  and  _92
REMARK   37  A    between atoms: _92  and  _93
REMARK   38  A    between atoms: _98  and  _100
REMARK   39  A    between atoms: _100  and  _101
REMARK   40  A    between atoms: _100  and  _103
REMARK   41  A    between atoms: _103  and  _104
REMARK   42  A    between atoms: _110  and  _112
REMARK   43  A    between atoms: _123  and  _126
REMARK   44  A    between atoms: _126  and  _127
REMARK   45  A    between atoms: _135  and  _136
REMARK   46  A    between atoms: _144  and  _146
REMARK   47  A    between atoms: _146  and  _147
REMARK   48  A    between atoms: _146  and  _149
REMARK   49  A    between atoms: _149  and  _150
REMARK   50  A    between atoms: _150  and  _151
REMARK   51  A    between atoms: _154  and  _156
REMARK   52  A    between atoms: _156  and  _157
REMARK   53  A    between atoms: _156  and  _159
REMARK   54  A    between atoms: _159  and  _160
REMARK   55  A    between atoms: _165  and  _167
REMARK   56  A    between atoms: _167  and  _168
REMARK   57  A    between atoms: _167  and  _170
REMARK   58  A    between atoms: _170  and  _171
REMARK   59  A    between atoms: _171  and  _172
REMARK   60  A    between atoms: _175  and  _177
REMARK   61  A    between atoms: _177  and  _178
REMARK   62  A    between atoms: _177  and  _180
REMARK   63  A    between atoms: _180  and  _181
REMARK   64  A    between atoms: _184  and  _186
REMARK   65  A    between atoms: _186  and  _187
REMARK   66  A    between atoms: _186  and  _189
REMARK   67  A    between atoms: _189  and  _190
REMARK   68  A    between atoms: _191  and  ZN_395
REMARK   69  A    between atoms: _195  and  _197
REMARK   70  A    between atoms: _197  and  _198
REMARK   71  A    between atoms: _197  and  _200
REMARK   72  A    between atoms: _200  and  _201
REMARK   73  A    between atoms: _204  and  _206
REMARK   74  A    between atoms: _206  and  _207
REMARK   75  A    between atoms: _206  and  _209
REMARK   76  A    between atoms: _212  and  _214
REMARK   77  A    between atoms: _214  and  _215
REMARK   78  A    between atoms: _214  and  _217
REMARK   79  A    between atoms: _217  and  _218
REMARK   80  A    between atoms: _223  and  _225
REMARK   81  A    between atoms: _225  and  _226
REMARK   82  A    between atoms: _225  and  _228
REMARK   83  A    between atoms: _228  and  _229
REMARK   84  A    between atoms: _235  and  _237
REMARK   85  A    between atoms: _237  and  _238
REMARK   86  A    between atoms: _240  and  _242
REMARK   87  A    between atoms: _242  and  _243
REMARK   88  A    between atoms: _246  and  _248
REMARK   89  A    between atoms: _248  and  _249
REMARK   90  A    between atoms: _248  and  _251
REMARK   91  A    between atoms: _251  and  _252
REMARK   92  A    between atoms: _255  and  _257
REMARK   93  A    between atoms: _257  and  _258
REMARK   94  A    between atoms: _261  and  _263
REMARK   95  A    between atoms: _263  and  _264
REMARK   96  A    between atoms: _263  and  _266
REMARK   97  A    between atoms: _269  and  _271
REMARK   98  A    between atoms: _271  and  _272
REMARK   99  A    between atoms: _271  and  _274
REMARK  100  A    between atoms: _277  and  _279
REMARK  101  A    between atoms: _279  and  _280
REMARK  102  A    between atoms: _279  and  _282
REMARK  103  A    between atoms: _282  and  _283
REMARK  104  A    between atoms: _285  and  _287
REMARK  105  A    between atoms: _287  and  _288
REMARK  106  A    between atoms: _287  and  _290
REMARK  107  A    between atoms: _290  and  _291
REMARK  108  A    between atoms: _294  and  _296
REMARK  109  A    between atoms: _296  and  _297
REMARK  110  A    between atoms: _296  and  _299
REMARK  111  A    between atoms: _299  and  _300
REMARK  112  A    between atoms: _303  and  _305
REMARK  113  A    between atoms: _305  and  _306
REMARK  114  A    between atoms: _305  and  _308
REMARK  115  A    between atoms: _308  and  _309
REMARK  116  A    between atoms: _313  and  _314
REMARK  117  A    between atoms: _320  and  _321
REMARK  118  A    between atoms: _326  and  _328
REMARK  119  A    between atoms: _328  and  _329
REMARK  120  A    between atoms: _328  and  _331
REMARK  121  A    between atoms: _331  and  _332
REMARK  122  A    between atoms: _335  and  _337
REMARK  123  A    between atoms: _337  and  _338
REMARK  124  A    between atoms: _337  and  _340
REMARK  125  A    between atoms: _340  and  _341
REMARK  126  A    between atoms: _343  and  _345
REMARK  127  A    between atoms: _345  and  _346
REMARK  128  A    between atoms: _345  and  _348
REMARK  129  A    between atoms: _351  and  _353
REMARK  130  A    between atoms: _353  and  _354
REMARK  131  A    between atoms: _353  and  _356
REMARK  132  A    between atoms: _356  and  _357
REMARK  133  A    between atoms: _367  and  _369
REMARK  134  A    between atoms: _369  and  _370
REMARK  135  A    between atoms: _369  and  _372
REMARK  136  A    between atoms: _372  and  _373
REMARK  137  A    between atoms: _378  and  _380
REMARK  138  A    between atoms: _380  and  _381
REMARK  139  A    between atoms: _380  and  _383
REMARK  140  A    between atoms: _383  and  _384
REMARK  141  A    between atoms: _384  and  _385
REMARK  142  A    between atoms: _385  and  _386
REMARK                            x       y       z     vdW  Elec       q    Type
REMARK                         _______ _______ _______ _____ _____    ______ ____
ROOT
ATOM      1  O   HOH     1      -1.672   2.948  22.860  0.00  0.00    +0.000 OA
ENDROOT
TORSDOF 0
REMARK  Name = ../refined-set-2016/3ml5/3ml5_pocket.pdb
REMARK  142 active torsions:
REMARK  status: ('A' for Active; 'I' for Inactive)
REMARK    1  A    between atoms: _1  and  _5
REMARK    2  A    between atoms: _5  and  _6
REMARK    3  A    between atoms: _8  and  _10
REMARK    4  A    between atoms: _10  and  _11
REMARK    5  A    between atoms: _10  and  _13
REMARK    6  A    between atoms: _13  and  _14
REMARK    7  A    between atoms: _24  and  _26
REMARK    8  A    between atoms: _26  and  _27
REMARK    9  A    between atoms: _26  and  _29
REMARK   10  A    between atoms: _29  and  _30
REMARK   11  A    between atoms: _35  and  _36
REMARK   12  A    between atoms: _38  and  _40
REMARK   13  A    between atoms: _40  and  _41
REMARK   14  A    between atoms: _40  and  _43
REMARK   15  A    between atoms: _43  and  _44
REMARK   16  A    between atoms: _47  and  _48
REMARK   17  A    between atoms: _53  and  _55
REMARK   18  A    between atoms: _55  and  _56
REMARK   19  A    between atoms: _55  and  _58
REMARK   20  A    between atoms: _58  and  _59
REMARK   21  A    between atoms: _61  and  _63
REMARK   22  A    between atoms: _63  and  _64
REMARK   23  A    between atoms: _63  and  _66
REMARK   24  A    between atoms: _66  and  _67
REMARK   25  A    between atoms: _67  and  _68
REMARK   26  A    between atoms: _73  and  _75
REMARK   27  A    between atoms: _75  and  _76
REMARK   28  A    between atoms: _75  and  _78
REMARK   29  A    between atoms: _78  and  _79
REMARK   30  A    between atoms: _79  and  _80
REMARK   31  A    between atoms: _80  and  _81
REMARK   32  A    between atoms: _81  and  _82
REMARK   33  A    between atoms: _86  and  _88
REMARK   34  A    between atoms: _88  and  _89
REMARK   35  A    between atoms: _88  and  _91
REMARK   36  A    between atoms: _91  and  _92
REMARK   37  A    between atoms: _92  and  _93
REMARK   38  A    between atoms: _98  and  _100
REMARK   39  A    between atoms: _100  and  _101
REMARK   40  A    between atoms: _100  and  _103
REMARK   41  A    between atoms: _103  and  _104
REMARK   42  A    between atoms: _110  and  _112
REMARK   43  A    between atoms: _123  and  _126
REMARK   44  A    between atoms: _126  and  _127
REMARK   45  A    between atoms: _135  and  _136
REMARK   46  A    between atoms: _144  and  _146
REMARK   47  A    between atoms: _146  and  _147
REMARK   48  A    between atoms: _146  and  _149
REMARK   49  A    between atoms: _149  and  _150
REMARK   50  A    between atoms: _150  and  _151
REMARK   51  A    between atoms: _154  and  _156
REMARK   52  A    between atoms: _156  and  _157
REMARK   53  A    between atoms: _156  and  _159
REMARK   54  A    between atoms: _159  and  _160
REMARK   55  A    between atoms: _165  and  _167
REMARK   56  A    between atoms: _167  and  _168
REMARK   57  A    between atoms: _167  and  _170
REMARK   58  A    between atoms: _170  and  _171
REMARK   59  A    between atoms: _171  and  _172
REMARK   60  A    between atoms: _175  and  _177
REMARK   61  A    between atoms: _177  and  _178
REMARK   62  A    between atoms: _177  and  _180
REMARK   63  A    between atoms: _180  and  _181
REMARK   64  A    between atoms: _184  and  _186
REMARK   65  A    between atoms: _186  and  _187
REMARK   66  A    between atoms: _186  and  _189
REMARK   67  A    between atoms: _189  and  _190
REMARK   68  A    between atoms: _191  and  ZN_395
REMARK   69  A    between atoms: _195  and  _197
REMARK   70  A    between atoms: _197  and  _198
REMARK   71  A    between atoms: _197  and  _200
REMARK   72  A    between atoms: _200  and  _201
REMARK   73  A    between atoms: _204  and  _206
REMARK   74  A    between atoms: _206  and  _207
REMARK   75  A    between atoms: _206  and  _209
REMARK   76  A    between atoms: _212  and  _214
REMARK   77  A    between atoms: _214  and  _215
REMARK   78  A    between atoms: _214  and  _217
REMARK   79  A    between atoms: _217  and  _218
REMARK   80  A    between atoms: _223  and  _225
REMARK   81  A    between atoms: _225  and  _226
REMARK   82  A    between atoms: _225  and  _228
REMARK   83  A    between atoms: _228  and  _229
REMARK   84  A    between atoms: _235  and  _237
REMARK   85  A    between atoms: _237  and  _238
REMARK   86  A    between atoms: _240  and  _242
REMARK   87  A    between atoms: _242  and  _243
REMARK   88  A    between atoms: _246  and  _248
REMARK   89  A    between atoms: _248  and  _249
REMARK   90  A    between atoms: _248  and  _251
REMARK   91  A    between atoms: _251  and  _252
REMARK   92  A    between atoms: _255  and  _257
REMARK   93  A    between atoms: _257  and  _258
REMARK   94  A    between atoms: _261  and  _263
REMARK   95  A    between atoms: _263  and  _264
REMARK   96  A    between atoms: _263  and  _266
REMARK   97  A    between atoms: _269  and  _271
REMARK   98  A    between atoms: _271  and  _272
REMARK   99  A    between atoms: _271  and  _274
REMARK  100  A    between atoms: _277  and  _279
REMARK  101  A    between atoms: _279  and  _280
REMARK  102  A    between atoms: _279  and  _282
REMARK  103  A    between atoms: _282  and  _283
REMARK  104  A    between atoms: _285  and  _287
REMARK  105  A    between atoms: _287  and  _288
REMARK  106  A    between atoms: _287  and  _290
REMARK  107  A    between atoms: _290  and  _291
REMARK  108  A    between atoms: _294  and  _296
REMARK  109  A    between atoms: _296  and  _297
REMARK  110  A    between atoms: _296  and  _299
REMARK  111  A    between atoms: _299  and  _300
REMARK  112  A    between atoms: _303  and  _305
REMARK  113  A    between atoms: _305  and  _306
REMARK  114  A    between atoms: _305  and  _308
REMARK  115  A    between atoms: _308  and  _309
REMARK  116  A    between atoms: _313  and  _314
REMARK  117  A    between atoms: _320  and  _321
REMARK  118  A    between atoms: _326  and  _328
REMARK  119  A    between atoms: _328  and  _329
REMARK  120  A    between atoms: _328  and  _331
REMARK  121  A    between atoms: _331  and  _332
REMARK  122  A    between atoms: _335  and  _337
REMARK  123  A    between atoms: _337  and  _338
REMARK  124  A    between atoms: _337  and  _340
REMARK  125  A    between atoms: _340  and  _341
REMARK  126  A    between atoms: _343  and  _345
REMARK  127  A    between atoms: _345  and  _346
REMARK  128  A    between atoms: _345  and  _348
REMARK  129  A    between atoms: _351  and  _353
REMARK  130  A    between atoms: _353  and  _354
REMARK  131  A    between atoms: _353  and  _356
REMARK  132  A    between atoms: _356  and  _357
REMARK  133  A    between atoms: _367  and  _369
REMARK  134  A    between atoms: _369  and  _370
REMARK  135  A    between atoms: _369  and  _372
REMARK  136  A    between atoms: _372  and  _373
REMARK  137  A    between atoms: _378  and  _380
REMARK  138  A    between atoms: _380  and  _381
REMARK  139  A    between atoms: _380  and  _383
REMARK  140  A    between atoms: _383  and  _384
REMARK  141  A    between atoms: _384  and  _385
REMARK  142  A    between atoms: _385  and  _386
REMARK                            x       y       z     vdW  Elec       q    Type
REMARK                         _______ _______ _______ _____ _____    ______ ____
ROOT
ATOM      1  O   HOH     1       3.615  -4.133  23.120  0.00  0.00    +0.000 OA
ENDROOT
TORSDOF 0
REMARK  Name = ../refined-set-2016/3ml5/3ml5_pocket.pdb
REMARK  142 active torsions:
REMARK  status: ('A' for Active; 'I' for Inactive)
REMARK    1  A    between atoms: _1  and  _5
REMARK    2  A    between atoms: _5  and  _6
REMARK    3  A    between atoms: _8  and  _10
REMARK    4  A    between atoms: _10  and  _11
REMARK    5  A    between atoms: _10  and  _13
REMARK    6  A    between atoms: _13  and  _14
REMARK    7  A    between atoms: _24  and  _26
REMARK    8  A    between atoms: _26  and  _27
REMARK    9  A    between atoms: _26  and  _29
REMARK   10  A    between atoms: _29  and  _30
REMARK   11  A    between atoms: _35  and  _36
REMARK   12  A    between atoms: _38  and  _40
REMARK   13  A    between atoms: _40  and  _41
REMARK   14  A    between atoms: _40  and  _43
REMARK   15  A    between atoms: _43  and  _44
REMARK   16  A    between atoms: _47  and  _48
REMARK   17  A    between atoms: _53  and  _55
REMARK   18  A    between atoms: _55  and  _56
REMARK   19  A    between atoms: _55  and  _58
REMARK   20  A    between atoms: _58  and  _59
REMARK   21  A    between atoms: _61  and  _63
REMARK   22  A    between atoms: _63  and  _64
REMARK   23  A    between atoms: _63  and  _66
REMARK   24  A    between atoms: _66  and  _67
REMARK   25  A    between atoms: _67  and  _68
REMARK   26  A    between atoms: _73  and  _75
REMARK   27  A    between atoms: _75  and  _76
REMARK   28  A    between atoms: _75  and  _78
REMARK   29  A    between atoms: _78  and  _79
REMARK   30  A    between atoms: _79  and  _80
REMARK   31  A    between atoms: _80  and  _81
REMARK   32  A    between atoms: _81  and  _82
REMARK   33  A    between atoms: _86  and  _88
REMARK   34  A    between atoms: _88  and  _89
REMARK   35  A    between atoms: _88  and  _91
REMARK   36  A    between atoms: _91  and  _92
REMARK   37  A    between atoms: _92  and  _93
REMARK   38  A    between atoms: _98  and  _100
REMARK   39  A    between atoms: _100  and  _101
REMARK   40  A    between atoms: _100  and  _103
REMARK   41  A    between atoms: _103  and  _104
REMARK   42  A    between atoms: _110  and  _112
REMARK   43  A    between atoms: _123  and  _126
REMARK   44  A    between atoms: _126  and  _127
REMARK   45  A    between atoms: _135  and  _136
REMARK   46  A    between atoms: _144  and  _146
REMARK   47  A    between atoms: _146  and  _147
REMARK   48  A    between atoms: _146  and  _149
REMARK   49  A    between atoms: _149  and  _150
REMARK   50  A    between atoms: _150  and  _151
REMARK   51  A    between atoms: _154  and  _156
REMARK   52  A    between atoms: _156  and  _157
REMARK   53  A    between atoms: _156  and  _159
REMARK   54  A    between atoms: _159  and  _160
REMARK   55  A    between atoms: _165  and  _167
REMARK   56  A    between atoms: _167  and  _168
REMARK   57  A    between atoms: _167  and  _170
REMARK   58  A    between atoms: _170  and  _171
REMARK   59  A    between atoms: _171  and  _172
REMARK   60  A    between atoms: _175  and  _177
REMARK   61  A    between atoms: _177  and  _178
REMARK   62  A    between atoms: _177  and  _180
REMARK   63  A    between atoms: _180  and  _181
REMARK   64  A    between atoms: _184  and  _186
REMARK   65  A    between atoms: _186  and  _187
REMARK   66  A    between atoms: _186  and  _189
REMARK   67  A    between atoms: _189  and  _190
REMARK   68  A    between atoms: _191  and  ZN_395
REMARK   69  A    between atoms: _195  and  _197
REMARK   70  A    between atoms: _197  and  _198
REMARK   71  A    between atoms: _197  and  _200
REMARK   72  A    between atoms: _200  and  _201
REMARK   73  A    between atoms: _204  and  _206
REMARK   74  A    between atoms: _206  and  _207
REMARK   75  A    between atoms: _206  and  _209
REMARK   76  A    between atoms: _212  and  _214
REMARK   77  A    between atoms: _214  and  _215
REMARK   78  A    between atoms: _214  and  _217
REMARK   79  A    between atoms: _217  and  _218
REMARK   80  A    between atoms: _223  and  _225
REMARK   81  A    between atoms: _225  and  _226
REMARK   82  A    between atoms: _225  and  _228
REMARK   83  A    between atoms: _228  and  _229
REMARK   84  A    between atoms: _235  and  _237
REMARK   85  A    between atoms: _237  and  _238
REMARK   86  A    between atoms: _240  and  _242
REMARK   87  A    between atoms: _242  and  _243
REMARK   88  A    between atoms: _246  and  _248
REMARK   89  A    between atoms: _248  and  _249
REMARK   90  A    between atoms: _248  and  _251
REMARK   91  A    between atoms: _251  and  _252
REMARK   92  A    between atoms: _255  and  _257
REMARK   93  A    between atoms: _257  and  _258
REMARK   94  A    between atoms: _261  and  _263
REMARK   95  A    between atoms: _263  and  _264
REMARK   96  A    between atoms: _263  and  _266
REMARK   97  A    between atoms: _269  and  _271
REMARK   98  A    between atoms: _271  and  _272
REMARK   99  A    between atoms: _271  and  _274
REMARK  100  A    between atoms: _277  and  _279
REMARK  101  A    between atoms: _279  and  _280
REMARK  102  A    between atoms: _279  and  _282
REMARK  103  A    between atoms: _282  and  _283
REMARK  104  A    between atoms: _285  and  _287
REMARK  105  A    between atoms: _287  and  _288
REMARK  106  A    between atoms: _287  and  _290
REMARK  107  A    between atoms: _290  and  _291
REMARK  108  A    between atoms: _294  and  _296
REMARK  109  A    between atoms: _296  and  _297
REMARK  110  A    between atoms: _296  and  _299
REMARK  111  A    between atoms: _299  and  _300
REMARK  112  A    between atoms: _303  and  _305
REMARK  113  A    between atoms: _305  and  _306
REMARK  114  A    between atoms: _305  and  _308
REMARK  115  A    between atoms: _308  and  _309
REMARK  116  A    between atoms: _313  and  _314
REMARK  117  A    between atoms: _320  and  _321
REMARK  118  A    between atoms: _326  and  _328
REMARK  119  A    between atoms: _328  and  _329
REMARK  120  A    between atoms: _328  and  _331
REMARK  121  A    between atoms: _331  and  _332
REMARK  122  A    between atoms: _335  and  _337
REMARK  123  A    between atoms: _337  and  _338
REMARK  124  A    between atoms: _337  and  _340
REMARK  125  A    between atoms: _340  and  _341
REMARK  126  A    between atoms: _343  and  _345
REMARK  127  A    between atoms: _345  and  _346
REMARK  128  A    between atoms: _345  and  _348
REMARK  129  A    between atoms: _351  and  _353
REMARK  130  A    between atoms: _353  and  _354
REMARK  131  A    between atoms: _353  and  _356
REMARK  132  A    between atoms: _356  and  _357
REMARK  133  A    between atoms: _367  and  _369
REMARK  134  A    between atoms: _369  and  _370
REMARK  135  A    between atoms: _369  and  _372
REMARK  136  A    between atoms: _372  and  _373
REMARK  137  A    between atoms: _378  and  _380
REMARK  138  A    between atoms: _380  and  _381
REMARK  139  A    between atoms: _380  and  _383
REMARK  140  A    between atoms: _383  and  _384
REMARK  141  A    between atoms: _384  and  _385
REMARK  142  A    between atoms: _385  and  _386
REMARK                            x       y       z     vdW  Elec       q    Type
REMARK                         _______ _______ _______ _____ _____    ______ ____
ROOT
ATOM      1  O   HOH     1      -2.999   0.905  21.598  0.00  0.00    +0.000 OA
ENDROOT
TORSDOF 0
REMARK  Name = ../refined-set-2016/3ml5/3ml5_pocket.pdb
REMARK  142 active torsions:
REMARK  status: ('A' for Active; 'I' for Inactive)
REMARK    1  A    between atoms: _1  and  _5
REMARK    2  A    between atoms: _5  and  _6
REMARK    3  A    between atoms: _8  and  _10
REMARK    4  A    between atoms: _10  and  _11
REMARK    5  A    between atoms: _10  and  _13
REMARK    6  A    between atoms: _13  and  _14
REMARK    7  A    between atoms: _24  and  _26
REMARK    8  A    between atoms: _26  and  _27
REMARK    9  A    between atoms: _26  and  _29
REMARK   10  A    between atoms: _29  and  _30
REMARK   11  A    between atoms: _35  and  _36
REMARK   12  A    between atoms: _38  and  _40
REMARK   13  A    between atoms: _40  and  _41
REMARK   14  A    between atoms: _40  and  _43
REMARK   15  A    between atoms: _43  and  _44
REMARK   16  A    between atoms: _47  and  _48
REMARK   17  A    between atoms: _53  and  _55
REMARK   18  A    between atoms: _55  and  _56
REMARK   19  A    between atoms: _55  and  _58
REMARK   20  A    between atoms: _58  and  _59
REMARK   21  A    between atoms: _61  and  _63
REMARK   22  A    between atoms: _63  and  _64
REMARK   23  A    between atoms: _63  and  _66
REMARK   24  A    between atoms: _66  and  _67
REMARK   25  A    between atoms: _67  and  _68
REMARK   26  A    between atoms: _73  and  _75
REMARK   27  A    between atoms: _75  and  _76
REMARK   28  A    between atoms: _75  and  _78
REMARK   29  A    between atoms: _78  and  _79
REMARK   30  A    between atoms: _79  and  _80
REMARK   31  A    between atoms: _80  and  _81
REMARK   32  A    between atoms: _81  and  _82
REMARK   33  A    between atoms: _86  and  _88
REMARK   34  A    between atoms: _88  and  _89
REMARK   35  A    between atoms: _88  and  _91
REMARK   36  A    between atoms: _91  and  _92
REMARK   37  A    between atoms: _92  and  _93
REMARK   38  A    between atoms: _98  and  _100
REMARK   39  A    between atoms: _100  and  _101
REMARK   40  A    between atoms: _100  and  _103
REMARK   41  A    between atoms: _103  and  _104
REMARK   42  A    between atoms: _110  and  _112
REMARK   43  A    between atoms: _123  and  _126
REMARK   44  A    between atoms: _126  and  _127
REMARK   45  A    between atoms: _135  and  _136
REMARK   46  A    between atoms: _144  and  _146
REMARK   47  A    between atoms: _146  and  _147
REMARK   48  A    between atoms: _146  and  _149
REMARK   49  A    between atoms: _149  and  _150
REMARK   50  A    between atoms: _150  and  _151
REMARK   51  A    between atoms: _154  and  _156
REMARK   52  A    between atoms: _156  and  _157
REMARK   53  A    between atoms: _156  and  _159
REMARK   54  A    between atoms: _159  and  _160
REMARK   55  A    between atoms: _165  and  _167
REMARK   56  A    between atoms: _167  and  _168
REMARK   57  A    between atoms: _167  and  _170
REMARK   58  A    between atoms: _170  and  _171
REMARK   59  A    between atoms: _171  and  _172
REMARK   60  A    between atoms: _175  and  _177
REMARK   61  A    between atoms: _177  and  _178
REMARK   62  A    between atoms: _177  and  _180
REMARK   63  A    between atoms: _180  and  _181
REMARK   64  A    between atoms: _184  and  _186
REMARK   65  A    between atoms: _186  and  _187
REMARK   66  A    between atoms: _186  and  _189
REMARK   67  A    between atoms: _189  and  _190
REMARK   68  A    between atoms: _191  and  ZN_395
REMARK   69  A    between atoms: _195  and  _197
REMARK   70  A    between atoms: _197  and  _198
REMARK   71  A    between atoms: _197  and  _200
REMARK   72  A    between atoms: _200  and  _201
REMARK   73  A    between atoms: _204  and  _206
REMARK   74  A    between atoms: _206  and  _207
REMARK   75  A    between atoms: _206  and  _209
REMARK   76  A    between atoms: _212  and  _214
REMARK   77  A    between atoms: _214  and  _215
REMARK   78  A    between atoms: _214  and  _217
REMARK   79  A    between atoms: _217  and  _218
REMARK   80  A    between atoms: _223  and  _225
REMARK   81  A    between atoms: _225  and  _226
REMARK   82  A    between atoms: _225  and  _228
REMARK   83  A    between atoms: _228  and  _229
REMARK   84  A    between atoms: _235  and  _237
REMARK   85  A    between atoms: _237  and  _238
REMARK   86  A    between atoms: _240  and  _242
REMARK   87  A    between atoms: _242  and  _243
REMARK   88  A    between atoms: _246  and  _248
REMARK   89  A    between atoms: _248  and  _249
REMARK   90  A    between atoms: _248  and  _251
REMARK   91  A    between atoms: _251  and  _252
REMARK   92  A    between atoms: _255  and  _257
REMARK   93  A    between atoms: _257  and  _258
REMARK   94  A    between atoms: _261  and  _263
REMARK   95  A    between atoms: _263  and  _264
REMARK   96  A    between atoms: _263  and  _266
REMARK   97  A    between atoms: _269  and  _271
REMARK   98  A    between atoms: _271  and  _272
REMARK   99  A    between atoms: _271  and  _274
REMARK  100  A    between atoms: _277  and  _279
REMARK  101  A    between atoms: _279  and  _280
REMARK  102  A    between atoms: _279  and  _282
REMARK  103  A    between atoms: _282  and  _283
REMARK  104  A    between atoms: _285  and  _287
REMARK  105  A    between atoms: _287  and  _288
REMARK  106  A    between atoms: _287  and  _290
REMARK  107  A    between atoms: _290  and  _291
REMARK  108  A    between atoms: _294  and  _296
REMARK  109  A    between atoms: _296  and  _297
REMARK  110  A    between atoms: _296  and  _299
REMARK  111  A    between atoms: _299  and  _300
REMARK  112  A    between atoms: _303  and  _305
REMARK  113  A    between atoms: _305  and  _306
REMARK  114  A    between atoms: _305  and  _308
REMARK  115  A    between atoms: _308  and  _309
REMARK  116  A    between atoms: _313  and  _314
REMARK  117  A    between atoms: _320  and  _321
REMARK  118  A    between atoms: _326  and  _328
REMARK  119  A    between atoms: _328  and  _329
REMARK  120  A    between atoms: _328  and  _331
REMARK  121  A    between atoms: _331  and  _332
REMARK  122  A    between atoms: _335  and  _337
REMARK  123  A    between atoms: _337  and  _338
REMARK  124  A    between atoms: _337  and  _340
REMARK  125  A    between atoms: _340  and  _341
REMARK  126  A    between atoms: _343  and  _345
REMARK  127  A    between atoms: _345  and  _346
REMARK  128  A    between atoms: _345  and  _348
REMARK  129  A    between atoms: _351  and  _353
REMARK  130  A    between atoms: _353  and  _354
REMARK  131  A    between atoms: _353  and  _356
REMARK  132  A    between atoms: _356  and  _357
REMARK  133  A    between atoms: _367  and  _369
REMARK  134  A    between atoms: _369  and  _370
REMARK  135  A    between atoms: _369  and  _372
REMARK  136  A    between atoms: _372  and  _373
REMARK  137  A    between atoms: _378  and  _380
REMARK  138  A    between atoms: _380  and  _381
REMARK  139  A    between atoms: _380  and  _383
REMARK  140  A    between atoms: _383  and  _384
REMARK  141  A    between atoms: _384  and  _385
REMARK  142  A    between atoms: _385  and  _386
REMARK                            x       y       z     vdW  Elec       q    Type
REMARK                         _______ _______ _______ _____ _____    ______ ____
ROOT
ATOM      1  O   HOH     1      -5.150   1.580  23.399  0.00  0.00    +0.000 OA
ENDROOT
TORSDOF 0
REMARK  Name = ../refined-set-2016/3ml5/3ml5_pocket.pdb
REMARK  142 active torsions:
REMARK  status: ('A' for Active; 'I' for Inactive)
REMARK    1  A    between atoms: _1  and  _5
REMARK    2  A    between atoms: _5  and  _6
REMARK    3  A    between atoms: _8  and  _10
REMARK    4  A    between atoms: _10  and  _11
REMARK    5  A    between atoms: _10  and  _13
REMARK    6  A    between atoms: _13  and  _14
REMARK    7  A    between atoms: _24  and  _26
REMARK    8  A    between atoms: _26  and  _27
REMARK    9  A    between atoms: _26  and  _29
REMARK   10  A    between atoms: _29  and  _30
REMARK   11  A    between atoms: _35  and  _36
REMARK   12  A    between atoms: _38  and  _40
REMARK   13  A    between atoms: _40  and  _41
REMARK   14  A    between atoms: _40  and  _43
REMARK   15  A    between atoms: _43  and  _44
REMARK   16  A    between atoms: _47  and  _48
REMARK   17  A    between atoms: _53  and  _55
REMARK   18  A    between atoms: _55  and  _56
REMARK   19  A    between atoms: _55  and  _58
REMARK   20  A    between atoms: _58  and  _59
REMARK   21  A    between atoms: _61  and  _63
REMARK   22  A    between atoms: _63  and  _64
REMARK   23  A    between atoms: _63  and  _66
REMARK   24  A    between atoms: _66  and  _67
REMARK   25  A    between atoms: _67  and  _68
REMARK   26  A    between atoms: _73  and  _75
REMARK   27  A    between atoms: _75  and  _76
REMARK   28  A    between atoms: _75  and  _78
REMARK   29  A    between atoms: _78  and  _79
REMARK   30  A    between atoms: _79  and  _80
REMARK   31  A    between atoms: _80  and  _81
REMARK   32  A    between atoms: _81  and  _82
REMARK   33  A    between atoms: _86  and  _88
REMARK   34  A    between atoms: _88  and  _89
REMARK   35  A    between atoms: _88  and  _91
REMARK   36  A    between atoms: _91  and  _92
REMARK   37  A    between atoms: _92  and  _93
REMARK   38  A    between atoms: _98  and  _100
REMARK   39  A    between atoms: _100  and  _101
REMARK   40  A    between atoms: _100  and  _103
REMARK   41  A    between atoms: _103  and  _104
REMARK   42  A    between atoms: _110  and  _112
REMARK   43  A    between atoms: _123  and  _126
REMARK   44  A    between atoms: _126  and  _127
REMARK   45  A    between atoms: _135  and  _136
REMARK   46  A    between atoms: _144  and  _146
REMARK   47  A    between atoms: _146  and  _147
REMARK   48  A    between atoms: _146  and  _149
REMARK   49  A    between atoms: _149  and  _150
REMARK   50  A    between atoms: _150  and  _151
REMARK   51  A    between atoms: _154  and  _156
REMARK   52  A    between atoms: _156  and  _157
REMARK   53  A    between atoms: _156  and  _159
REMARK   54  A    between atoms: _159  and  _160
REMARK   55  A    between atoms: _165  and  _167
REMARK   56  A    between atoms: _167  and  _168
REMARK   57  A    between atoms: _167  and  _170
REMARK   58  A    between atoms: _170  and  _171
REMARK   59  A    between atoms: _171  and  _172
REMARK   60  A    between atoms: _175  and  _177
REMARK   61  A    between atoms: _177  and  _178
REMARK   62  A    between atoms: _177  and  _180
REMARK   63  A    between atoms: _180  and  _181
REMARK   64  A    between atoms: _184  and  _186
REMARK   65  A    between atoms: _186  and  _187
REMARK   66  A    between atoms: _186  and  _189
REMARK   67  A    between atoms: _189  and  _190
REMARK   68  A    between atoms: _191  and  ZN_395
REMARK   69  A    between atoms: _195  and  _197
REMARK   70  A    between atoms: _197  and  _198
REMARK   71  A    between atoms: _197  and  _200
REMARK   72  A    between atoms: _200  and  _201
REMARK   73  A    between atoms: _204  and  _206
REMARK   74  A    between atoms: _206  and  _207
REMARK   75  A    between atoms: _206  and  _209
REMARK   76  A    between atoms: _212  and  _214
REMARK   77  A    between atoms: _214  and  _215
REMARK   78  A    between atoms: _214  and  _217
REMARK   79  A    between atoms: _217  and  _218
REMARK   80  A    between atoms: _223  and  _225
REMARK   81  A    between atoms: _225  and  _226
REMARK   82  A    between atoms: _225  and  _228
REMARK   83  A    between atoms: _228  and  _229
REMARK   84  A    between atoms: _235  and  _237
REMARK   85  A    between atoms: _237  and  _238
REMARK   86  A    between atoms: _240  and  _242
REMARK   87  A    between atoms: _242  and  _243
REMARK   88  A    between atoms: _246  and  _248
REMARK   89  A    between atoms: _248  and  _249
REMARK   90  A    between atoms: _248  and  _251
REMARK   91  A    between atoms: _251  and  _252
REMARK   92  A    between atoms: _255  and  _257
REMARK   93  A    between atoms: _257  and  _258
REMARK   94  A    between atoms: _261  and  _263
REMARK   95  A    between atoms: _263  and  _264
REMARK   96  A    between atoms: _263  and  _266
REMARK   97  A    between atoms: _269  and  _271
REMARK   98  A    between atoms: _271  and  _272
REMARK   99  A    between atoms: _271  and  _274
REMARK  100  A    between atoms: _277  and  _279
REMARK  101  A    between atoms: _279  and  _280
REMARK  102  A    between atoms: _279  and  _282
REMARK  103  A    between atoms: _282  and  _283
REMARK  104  A    between atoms: _285  and  _287
REMARK  105  A    between atoms: _287  and  _288
REMARK  106  A    between atoms: _287  and  _290
REMARK  107  A    between atoms: _290  and  _291
REMARK  108  A    between atoms: _294  and  _296
REMARK  109  A    between atoms: _296  and  _297
REMARK  110  A    between atoms: _296  and  _299
REMARK  111  A    between atoms: _299  and  _300
REMARK  112  A    between atoms: _303  and  _305
REMARK  113  A    between atoms: _305  and  _306
REMARK  114  A    between atoms: _305  and  _308
REMARK  115  A    between atoms: _308  and  _309
REMARK  116  A    between atoms: _313  and  _314
REMARK  117  A    between atoms: _320  and  _321
REMARK  118  A    between atoms: _326  and  _328
REMARK  119  A    between atoms: _328  and  _329
REMARK  120  A    between atoms: _328  and  _331
REMARK  121  A    between atoms: _331  and  _332
REMARK  122  A    between atoms: _335  and  _337
REMARK  123  A    between atoms: _337  and  _338
REMARK  124  A    between atoms: _337  and  _340
REMARK  125  A    between atoms: _340  and  _341
REMARK  126  A    between atoms: _343  and  _345
REMARK  127  A    between atoms: _345  and  _346
REMARK  128  A    between atoms: _345  and  _348
REMARK  129  A    between atoms: _351  and  _353
REMARK  130  A    between atoms: _353  and  _354
REMARK  131  A    between atoms: _353  and  _356
REMARK  132  A    between atoms: _356  and  _357
REMARK  133  A    between atoms: _367  and  _369
REMARK  134  A    between atoms: _369  and  _370
REMARK  135  A    between atoms: _369  and  _372
REMARK  136  A    between atoms: _372  and  _373
REMARK  137  A    between atoms: _378  and  _380
REMARK  138  A    between atoms: _380  and  _381
REMARK  139  A    between atoms: _380  and  _383
REMARK  140  A    between atoms: _383  and  _384
REMARK  141  A    between atoms: _384  and  _385
REMARK  142  A    between atoms: _385  and  _386
REMARK                            x       y       z     vdW  Elec       q    Type
REMARK                         _______ _______ _______ _____ _____    ______ ____
ROOT
ATOM      1  O   HOH     1      -5.419  -3.046  24.156  0.00  0.00    +0.000 OA
ENDROOT
TORSDOF 0
REMARK  Name = ../refined-set-2016/3ml5/3ml5_pocket.pdb
REMARK  142 active torsions:
REMARK  status: ('A' for Active; 'I' for Inactive)
REMARK    1  A    between atoms: _1  and  _5
REMARK    2  A    between atoms: _5  and  _6
REMARK    3  A    between atoms: _8  and  _10
REMARK    4  A    between atoms: _10  and  _11
REMARK    5  A    between atoms: _10  and  _13
REMARK    6  A    between atoms: _13  and  _14
REMARK    7  A    between atoms: _24  and  _26
REMARK    8  A    between atoms: _26  and  _27
REMARK    9  A    between atoms: _26  and  _29
REMARK   10  A    between atoms: _29  and  _30
REMARK   11  A    between atoms: _35  and  _36
REMARK   12  A    between atoms: _38  and  _40
REMARK   13  A    between atoms: _40  and  _41
REMARK   14  A    between atoms: _40  and  _43
REMARK   15  A    between atoms: _43  and  _44
REMARK   16  A    between atoms: _47  and  _48
REMARK   17  A    between atoms: _53  and  _55
REMARK   18  A    between atoms: _55  and  _56
REMARK   19  A    between atoms: _55  and  _58
REMARK   20  A    between atoms: _58  and  _59
REMARK   21  A    between atoms: _61  and  _63
REMARK   22  A    between atoms: _63  and  _64
REMARK   23  A    between atoms: _63  and  _66
REMARK   24  A    between atoms: _66  and  _67
REMARK   25  A    between atoms: _67  and  _68
REMARK   26  A    between atoms: _73  and  _75
REMARK   27  A    between atoms: _75  and  _76
REMARK   28  A    between atoms: _75  and  _78
REMARK   29  A    between atoms: _78  and  _79
REMARK   30  A    between atoms: _79  and  _80
REMARK   31  A    between atoms: _80  and  _81
REMARK   32  A    between atoms: _81  and  _82
REMARK   33  A    between atoms: _86  and  _88
REMARK   34  A    between atoms: _88  and  _89
REMARK   35  A    between atoms: _88  and  _91
REMARK   36  A    between atoms: _91  and  _92
REMARK   37  A    between atoms: _92  and  _93
REMARK   38  A    between atoms: _98  and  _100
REMARK   39  A    between atoms: _100  and  _101
REMARK   40  A    between atoms: _100  and  _103
REMARK   41  A    between atoms: _103  and  _104
REMARK   42  A    between atoms: _110  and  _112
REMARK   43  A    between atoms: _123  and  _126
REMARK   44  A    between atoms: _126  and  _127
REMARK   45  A    between atoms: _135  and  _136
REMARK   46  A    between atoms: _144  and  _146
REMARK   47  A    between atoms: _146  and  _147
REMARK   48  A    between atoms: _146  and  _149
REMARK   49  A    between atoms: _149  and  _150
REMARK   50  A    between atoms: _150  and  _151
REMARK   51  A    between atoms: _154  and  _156
REMARK   52  A    between atoms: _156  and  _157
REMARK   53  A    between atoms: _156  and  _159
REMARK   54  A    between atoms: _159  and  _160
REMARK   55  A    between atoms: _165  and  _167
REMARK   56  A    between atoms: _167  and  _168
REMARK   57  A    between atoms: _167  and  _170
REMARK   58  A    between atoms: _170  and  _171
REMARK   59  A    between atoms: _171  and  _172
REMARK   60  A    between atoms: _175  and  _177
REMARK   61  A    between atoms: _177  and  _178
REMARK   62  A    between atoms: _177  and  _180
REMARK   63  A    between atoms: _180  and  _181
REMARK   64  A    between atoms: _184  and  _186
REMARK   65  A    between atoms: _186  and  _187
REMARK   66  A    between atoms: _186  and  _189
REMARK   67  A    between atoms: _189  and  _190
REMARK   68  A    between atoms: _191  and  ZN_395
REMARK   69  A    between atoms: _195  and  _197
REMARK   70  A    between atoms: _197  and  _198
REMARK   71  A    between atoms: _197  and  _200
REMARK   72  A    between atoms: _200  and  _201
REMARK   73  A    between atoms: _204  and  _206
REMARK   74  A    between atoms: _206  and  _207
REMARK   75  A    between atoms: _206  and  _209
REMARK   76  A    between atoms: _212  and  _214
REMARK   77  A    between atoms: _214  and  _215
REMARK   78  A    between atoms: _214  and  _217
REMARK   79  A    between atoms: _217  and  _218
REMARK   80  A    between atoms: _223  and  _225
REMARK   81  A    between atoms: _225  and  _226
REMARK   82  A    between atoms: _225  and  _228
REMARK   83  A    between atoms: _228  and  _229
REMARK   84  A    between atoms: _235  and  _237
REMARK   85  A    between atoms: _237  and  _238
REMARK   86  A    between atoms: _240  and  _242
REMARK   87  A    between atoms: _242  and  _243
REMARK   88  A    between atoms: _246  and  _248
REMARK   89  A    between atoms: _248  and  _249
REMARK   90  A    between atoms: _248  and  _251
REMARK   91  A    between atoms: _251  and  _252
REMARK   92  A    between atoms: _255  and  _257
REMARK   93  A    between atoms: _257  and  _258
REMARK   94  A    between atoms: _261  and  _263
REMARK   95  A    between atoms: _263  and  _264
REMARK   96  A    between atoms: _263  and  _266
REMARK   97  A    between atoms: _269  and  _271
REMARK   98  A    between atoms: _271  and  _272
REMARK   99  A    between atoms: _271  and  _274
REMARK  100  A    between atoms: _277  and  _279
REMARK  101  A    between atoms: _279  and  _280
REMARK  102  A    between atoms: _279  and  _282
REMARK  103  A    between atoms: _282  and  _283
REMARK  104  A    between atoms: _285  and  _287
REMARK  105  A    between atoms: _287  and  _288
REMARK  106  A    between atoms: _287  and  _290
REMARK  107  A    between atoms: _290  and  _291
REMARK  108  A    between atoms: _294  and  _296
REMARK  109  A    between atoms: _296  and  _297
REMARK  110  A    between atoms: _296  and  _299
REMARK  111  A    between atoms: _299  and  _300
REMARK  112  A    between atoms: _303  and  _305
REMARK  113  A    between atoms: _305  and  _306
REMARK  114  A    between atoms: _305  and  _308
REMARK  115  A    between atoms: _308  and  _309
REMARK  116  A    between atoms: _313  and  _314
REMARK  117  A    between atoms: _320  and  _321
REMARK  118  A    between atoms: _326  and  _328
REMARK  119  A    between atoms: _328  and  _329
REMARK  120  A    between atoms: _328  and  _331
REMARK  121  A    between atoms: _331  and  _332
REMARK  122  A    between atoms: _335  and  _337
REMARK  123  A    between atoms: _337  and  _338
REMARK  124  A    between atoms: _337  and  _340
REMARK  125  A    between atoms: _340  and  _341
REMARK  126  A    between atoms: _343  and  _345
REMARK  127  A    between atoms: _345  and  _346
REMARK  128  A    between atoms: _345  and  _348
REMARK  129  A    between atoms: _351  and  _353
REMARK  130  A    between atoms: _353  and  _354
REMARK  131  A    between atoms: _353  and  _356
REMARK  132  A    between atoms: _356  and  _357
REMARK  133  A    between atoms: _367  and  _369
REMARK  134  A    between atoms: _369  and  _370
REMARK  135  A    between atoms: _369  and  _372
REMARK  136  A    between atoms: _372  and  _373
REMARK  137  A    between atoms: _378  and  _380
REMARK  138  A    between atoms: _380  and  _381
REMARK  139  A    between atoms: _380  and  _383
REMARK  140  A    between atoms: _383  and  _384
REMARK  141  A    between atoms: _384  and  _385
REMARK  142  A    between atoms: _385  and  _386
REMARK                            x       y       z     vdW  Elec       q    Type
REMARK                         _______ _______ _______ _____ _____    ______ ____
ROOT
ATOM      1  O   HOH     1       2.559   0.221  24.330  0.00  0.00    +0.000 OA
ENDROOT
TORSDOF 0
REMARK  Name = ../refined-set-2016/3ml5/3ml5_pocket.pdb
REMARK  142 active torsions:
REMARK  status: ('A' for Active; 'I' for Inactive)
REMARK    1  A    between atoms: _1  and  _5
REMARK    2  A    between atoms: _5  and  _6
REMARK    3  A    between atoms: _8  and  _10
REMARK    4  A    between atoms: _10  and  _11
REMARK    5  A    between atoms: _10  and  _13
REMARK    6  A    between atoms: _13  and  _14
REMARK    7  A    between atoms: _24  and  _26
REMARK    8  A    between atoms: _26  and  _27
REMARK    9  A    between atoms: _26  and  _29
REMARK   10  A    between atoms: _29  and  _30
REMARK   11  A    between atoms: _35  and  _36
REMARK   12  A    between atoms: _38  and  _40
REMARK   13  A    between atoms: _40  and  _41
REMARK   14  A    between atoms: _40  and  _43
REMARK   15  A    between atoms: _43  and  _44
REMARK   16  A    between atoms: _47  and  _48
REMARK   17  A    between atoms: _53  and  _55
REMARK   18  A    between atoms: _55  and  _56
REMARK   19  A    between atoms: _55  and  _58
REMARK   20  A    between atoms: _58  and  _59
REMARK   21  A    between atoms: _61  and  _63
REMARK   22  A    between atoms: _63  and  _64
REMARK   23  A    between atoms: _63  and  _66
REMARK   24  A    between atoms: _66  and  _67
REMARK   25  A    between atoms: _67  and  _68
REMARK   26  A    between atoms: _73  and  _75
REMARK   27  A    between atoms: _75  and  _76
REMARK   28  A    between atoms: _75  and  _78
REMARK   29  A    between atoms: _78  and  _79
REMARK   30  A    between atoms: _79  and  _80
REMARK   31  A    between atoms: _80  and  _81
REMARK   32  A    between atoms: _81  and  _82
REMARK   33  A    between atoms: _86  and  _88
REMARK   34  A    between atoms: _88  and  _89
REMARK   35  A    between atoms: _88  and  _91
REMARK   36  A    between atoms: _91  and  _92
REMARK   37  A    between atoms: _92  and  _93
REMARK   38  A    between atoms: _98  and  _100
REMARK   39  A    between atoms: _100  and  _101
REMARK   40  A    between atoms: _100  and  _103
REMARK   41  A    between atoms: _103  and  _104
REMARK   42  A    between atoms: _110  and  _112
REMARK   43  A    between atoms: _123  and  _126
REMARK   44  A    between atoms: _126  and  _127
REMARK   45  A    between atoms: _135  and  _136
REMARK   46  A    between atoms: _144  and  _146
REMARK   47  A    between atoms: _146  and  _147
REMARK   48  A    between atoms: _146  and  _149
REMARK   49  A    between atoms: _149  and  _150
REMARK   50  A    between atoms: _150  and  _151
REMARK   51  A    between atoms: _154  and  _156
REMARK   52  A    between atoms: _156  and  _157
REMARK   53  A    between atoms: _156  and  _159
REMARK   54  A    between atoms: _159  and  _160
REMARK   55  A    between atoms: _165  and  _167
REMARK   56  A    between atoms: _167  and  _168
REMARK   57  A    between atoms: _167  and  _170
REMARK   58  A    between atoms: _170  and  _171
REMARK   59  A    between atoms: _171  and  _172
REMARK   60  A    between atoms: _175  and  _177
REMARK   61  A    between atoms: _177  and  _178
REMARK   62  A    between atoms: _177  and  _180
REMARK   63  A    between atoms: _180  and  _181
REMARK   64  A    between atoms: _184  and  _186
REMARK   65  A    between atoms: _186  and  _187
REMARK   66  A    between atoms: _186  and  _189
REMARK   67  A    between atoms: _189  and  _190
REMARK   68  A    between atoms: _191  and  ZN_395
REMARK   69  A    between atoms: _195  and  _197
REMARK   70  A    between atoms: _197  and  _198
REMARK   71  A    between atoms: _197  and  _200
REMARK   72  A    between atoms: _200  and  _201
REMARK   73  A    between atoms: _204  and  _206
REMARK   74  A    between atoms: _206  and  _207
REMARK   75  A    between atoms: _206  and  _209
REMARK   76  A    between atoms: _212  and  _214
REMARK   77  A    between atoms: _214  and  _215
REMARK   78  A    between atoms: _214  and  _217
REMARK   79  A    between atoms: _217  and  _218
REMARK   80  A    between atoms: _223  and  _225
REMARK   81  A    between atoms: _225  and  _226
REMARK   82  A    between atoms: _225  and  _228
REMARK   83  A    between atoms: _228  and  _229
REMARK   84  A    between atoms: _235  and  _237
REMARK   85  A    between atoms: _237  and  _238
REMARK   86  A    between atoms: _240  and  _242
REMARK   87  A    between atoms: _242  and  _243
REMARK   88  A    between atoms: _246  and  _248
REMARK   89  A    between atoms: _248  and  _249
REMARK   90  A    between atoms: _248  and  _251
REMARK   91  A    between atoms: _251  and  _252
REMARK   92  A    between atoms: _255  and  _257
REMARK   93  A    between atoms: _257  and  _258
REMARK   94  A    between atoms: _261  and  _263
REMARK   95  A    between atoms: _263  and  _264
REMARK   96  A    between atoms: _263  and  _266
REMARK   97  A    between atoms: _269  and  _271
REMARK   98  A    between atoms: _271  and  _272
REMARK   99  A    between atoms: _271  and  _274
REMARK  100  A    between atoms: _277  and  _279
REMARK  101  A    between atoms: _279  and  _280
REMARK  102  A    between atoms: _279  and  _282
REMARK  103  A    between atoms: _282  and  _283
REMARK  104  A    between atoms: _285  and  _287
REMARK  105  A    between atoms: _287  and  _288
REMARK  106  A    between atoms: _287  and  _290
REMARK  107  A    between atoms: _290  and  _291
REMARK  108  A    between atoms: _294  and  _296
REMARK  109  A    between atoms: _296  and  _297
REMARK  110  A    between atoms: _296  and  _299
REMARK  111  A    between atoms: _299  and  _300
REMARK  112  A    between atoms: _303  and  _305
REMARK  113  A    between atoms: _305  and  _306
REMARK  114  A    between atoms: _305  and  _308
REMARK  115  A    between atoms: _308  and  _309
REMARK  116  A    between atoms: _313  and  _314
REMARK  117  A    between atoms: _320  and  _321
REMARK  118  A    between atoms: _326  and  _328
REMARK  119  A    between atoms: _328  and  _329
REMARK  120  A    between atoms: _328  and  _331
REMARK  121  A    between atoms: _331  and  _332
REMARK  122  A    between atoms: _335  and  _337
REMARK  123  A    between atoms: _337  and  _338
REMARK  124  A    between atoms: _337  and  _340
REMARK  125  A    between atoms: _340  and  _341
REMARK  126  A    between atoms: _343  and  _345
REMARK  127  A    between atoms: _345  and  _346
REMARK  128  A    between atoms: _345  and  _348
REMARK  129  A    between atoms: _351  and  _353
REMARK  130  A    between atoms: _353  and  _354
REMARK  131  A    between atoms: _353  and  _356
REMARK  132  A    between atoms: _356  and  _357
REMARK  133  A    between atoms: _367  and  _369
REMARK  134  A    between atoms: _369  and  _370
REMARK  135  A    between atoms: _369  and  _372
REMARK  136  A    between atoms: _372  and  _373
REMARK  137  A    between atoms: _378  and  _380
REMARK  138  A    between atoms: _380  and  _381
REMARK  139  A    between atoms: _380  and  _383
REMARK  140  A    between atoms: _383  and  _384
REMARK  141  A    between atoms: _384  and  _385
REMARK  142  A    between atoms: _385  and  _386
REMARK                            x       y       z     vdW  Elec       q    Type
REMARK                         _______ _______ _______ _____ _____    ______ ____
ROOT
ATOM      1  O   HOH     1      -5.690   5.824  24.885  0.00  0.00    +0.000 OA
ENDROOT
TORSDOF 0
REMARK  Name = ../refined-set-2016/3ml5/3ml5_pocket.pdb
REMARK  142 active torsions:
REMARK  status: ('A' for Active; 'I' for Inactive)
REMARK    1  A    between atoms: _1  and  _5
REMARK    2  A    between atoms: _5  and  _6
REMARK    3  A    between atoms: _8  and  _10
REMARK    4  A    between atoms: _10  and  _11
REMARK    5  A    between atoms: _10  and  _13
REMARK    6  A    between atoms: _13  and  _14
REMARK    7  A    between atoms: _24  and  _26
REMARK    8  A    between atoms: _26  and  _27
REMARK    9  A    between atoms: _26  and  _29
REMARK   10  A    between atoms: _29  and  _30
REMARK   11  A    between atoms: _35  and  _36
REMARK   12  A    between atoms: _38  and  _40
REMARK   13  A    between atoms: _40  and  _41
REMARK   14  A    between atoms: _40  and  _43
REMARK   15  A    between atoms: _43  and  _44
REMARK   16  A    between atoms: _47  and  _48
REMARK   17  A    between atoms: _53  and  _55
REMARK   18  A    between atoms: _55  and  _56
REMARK   19  A    between atoms: _55  and  _58
REMARK   20  A    between atoms: _58  and  _59
REMARK   21  A    between atoms: _61  and  _63
REMARK   22  A    between atoms: _63  and  _64
REMARK   23  A    between atoms: _63  and  _66
REMARK   24  A    between atoms: _66  and  _67
REMARK   25  A    between atoms: _67  and  _68
REMARK   26  A    between atoms: _73  and  _75
REMARK   27  A    between atoms: _75  and  _76
REMARK   28  A    between atoms: _75  and  _78
REMARK   29  A    between atoms: _78  and  _79
REMARK   30  A    between atoms: _79  and  _80
REMARK   31  A    between atoms: _80  and  _81
REMARK   32  A    between atoms: _81  and  _82
REMARK   33  A    between atoms: _86  and  _88
REMARK   34  A    between atoms: _88  and  _89
REMARK   35  A    between atoms: _88  and  _91
REMARK   36  A    between atoms: _91  and  _92
REMARK   37  A    between atoms: _92  and  _93
REMARK   38  A    between atoms: _98  and  _100
REMARK   39  A    between atoms: _100  and  _101
REMARK   40  A    between atoms: _100  and  _103
REMARK   41  A    between atoms: _103  and  _104
REMARK   42  A    between atoms: _110  and  _112
REMARK   43  A    between atoms: _123  and  _126
REMARK   44  A    between atoms: _126  and  _127
REMARK   45  A    between atoms: _135  and  _136
REMARK   46  A    between atoms: _144  and  _146
REMARK   47  A    between atoms: _146  and  _147
REMARK   48  A    between atoms: _146  and  _149
REMARK   49  A    between atoms: _149  and  _150
REMARK   50  A    between atoms: _150  and  _151
REMARK   51  A    between atoms: _154  and  _156
REMARK   52  A    between atoms: _156  and  _157
REMARK   53  A    between atoms: _156  and  _159
REMARK   54  A    between atoms: _159  and  _160
REMARK   55  A    between atoms: _165  and  _167
REMARK   56  A    between atoms: _167  and  _168
REMARK   57  A    between atoms: _167  and  _170
REMARK   58  A    between atoms: _170  and  _171
REMARK   59  A    between atoms: _171  and  _172
REMARK   60  A    between atoms: _175  and  _177
REMARK   61  A    between atoms: _177  and  _178
REMARK   62  A    between atoms: _177  and  _180
REMARK   63  A    between atoms: _180  and  _181
REMARK   64  A    between atoms: _184  and  _186
REMARK   65  A    between atoms: _186  and  _187
REMARK   66  A    between atoms: _186  and  _189
REMARK   67  A    between atoms: _189  and  _190
REMARK   68  A    between atoms: _191  and  ZN_395
REMARK   69  A    between atoms: _195  and  _197
REMARK   70  A    between atoms: _197  and  _198
REMARK   71  A    between atoms: _197  and  _200
REMARK   72  A    between atoms: _200  and  _201
REMARK   73  A    between atoms: _204  and  _206
REMARK   74  A    between atoms: _206  and  _207
REMARK   75  A    between atoms: _206  and  _209
REMARK   76  A    between atoms: _212  and  _214
REMARK   77  A    between atoms: _214  and  _215
REMARK   78  A    between atoms: _214  and  _217
REMARK   79  A    between atoms: _217  and  _218
REMARK   80  A    between atoms: _223  and  _225
REMARK   81  A    between atoms: _225  and  _226
REMARK   82  A    between atoms: _225  and  _228
REMARK   83  A    between atoms: _228  and  _229
REMARK   84  A    between atoms: _235  and  _237
REMARK   85  A    between atoms: _237  and  _238
REMARK   86  A    between atoms: _240  and  _242
REMARK   87  A    between atoms: _242  and  _243
REMARK   88  A    between atoms: _246  and  _248
REMARK   89  A    between atoms: _248  and  _249
REMARK   90  A    between atoms: _248  and  _251
REMARK   91  A    between atoms: _251  and  _252
REMARK   92  A    between atoms: _255  and  _257
REMARK   93  A    between atoms: _257  and  _258
REMARK   94  A    between atoms: _261  and  _263
REMARK   95  A    between atoms: _263  and  _264
REMARK   96  A    between atoms: _263  and  _266
REMARK   97  A    between atoms: _269  and  _271
REMARK   98  A    between atoms: _271  and  _272
REMARK   99  A    between atoms: _271  and  _274
REMARK  100  A    between atoms: _277  and  _279
REMARK  101  A    between atoms: _279  and  _280
REMARK  102  A    between atoms: _279  and  _282
REMARK  103  A    between atoms: _282  and  _283
REMARK  104  A    between atoms: _285  and  _287
REMARK  105  A    between atoms: _287  and  _288
REMARK  106  A    between atoms: _287  and  _290
REMARK  107  A    between atoms: _290  and  _291
REMARK  108  A    between atoms: _294  and  _296
REMARK  109  A    between atoms: _296  and  _297
REMARK  110  A    between atoms: _296  and  _299
REMARK  111  A    between atoms: _299  and  _300
REMARK  112  A    between atoms: _303  and  _305
REMARK  113  A    between atoms: _305  and  _306
REMARK  114  A    between atoms: _305  and  _308
REMARK  115  A    between atoms: _308  and  _309
REMARK  116  A    between atoms: _313  and  _314
REMARK  117  A    between atoms: _320  and  _321
REMARK  118  A    between atoms: _326  and  _328
REMARK  119  A    between atoms: _328  and  _329
REMARK  120  A    between atoms: _328  and  _331
REMARK  121  A    between atoms: _331  and  _332
REMARK  122  A    between atoms: _335  and  _337
REMARK  123  A    between atoms: _337  and  _338
REMARK  124  A    between atoms: _337  and  _340
REMARK  125  A    between atoms: _340  and  _341
REMARK  126  A    between atoms: _343  and  _345
REMARK  127  A    between atoms: _345  and  _346
REMARK  128  A    between atoms: _345  and  _348
REMARK  129  A    between atoms: _351  and  _353
REMARK  130  A    between atoms: _353  and  _354
REMARK  131  A    between atoms: _353  and  _356
REMARK  132  A    between atoms: _356  and  _357
REMARK  133  A    between atoms: _367  and  _369
REMARK  134  A    between atoms: _369  and  _370
REMARK  135  A    between atoms: _369  and  _372
REMARK  136  A    between atoms: _372  and  _373
REMARK  137  A    between atoms: _378  and  _380
REMARK  138  A    between atoms: _380  and  _381
REMARK  139  A    between atoms: _380  and  _383
REMARK  140  A    between atoms: _383  and  _384
REMARK  141  A    between atoms: _384  and  _385
REMARK  142  A    between atoms: _385  and  _386
REMARK                            x       y       z     vdW  Elec       q    Type
REMARK                         _______ _______ _______ _____ _____    ______ ____
ROOT
ATOM      1  O   HOH     1       0.057   0.663  23.491  0.00  0.00    +0.000 OA
ENDROOT
TORSDOF 0
REMARK  Name = ../refined-set-2016/3ml5/3ml5_pocket.pdb
REMARK  142 active torsions:
REMARK  status: ('A' for Active; 'I' for Inactive)
REMARK    1  A    between atoms: _1  and  _5
REMARK    2  A    between atoms: _5  and  _6
REMARK    3  A    between atoms: _8  and  _10
REMARK    4  A    between atoms: _10  and  _11
REMARK    5  A    between atoms: _10  and  _13
REMARK    6  A    between atoms: _13  and  _14
REMARK    7  A    between atoms: _24  and  _26
REMARK    8  A    between atoms: _26  and  _27
REMARK    9  A    between atoms: _26  and  _29
REMARK   10  A    between atoms: _29  and  _30
REMARK   11  A    between atoms: _35  and  _36
REMARK   12  A    between atoms: _38  and  _40
REMARK   13  A    between atoms: _40  and  _41
REMARK   14  A    between atoms: _40  and  _43
REMARK   15  A    between atoms: _43  and  _44
REMARK   16  A    between atoms: _47  and  _48
REMARK   17  A    between atoms: _53  and  _55
REMARK   18  A    between atoms: _55  and  _56
REMARK   19  A    between atoms: _55  and  _58
REMARK   20  A    between atoms: _58  and  _59
REMARK   21  A    between atoms: _61  and  _63
REMARK   22  A    between atoms: _63  and  _64
REMARK   23  A    between atoms: _63  and  _66
REMARK   24  A    between atoms: _66  and  _67
REMARK   25  A    between atoms: _67  and  _68
REMARK   26  A    between atoms: _73  and  _75
REMARK   27  A    between atoms: _75  and  _76
REMARK   28  A    between atoms: _75  and  _78
REMARK   29  A    between atoms: _78  and  _79
REMARK   30  A    between atoms: _79  and  _80
REMARK   31  A    between atoms: _80  and  _81
REMARK   32  A    between atoms: _81  and  _82
REMARK   33  A    between atoms: _86  and  _88
REMARK   34  A    between atoms: _88  and  _89
REMARK   35  A    between atoms: _88  and  _91
REMARK   36  A    between atoms: _91  and  _92
REMARK   37  A    between atoms: _92  and  _93
REMARK   38  A    between atoms: _98  and  _100
REMARK   39  A    between atoms: _100  and  _101
REMARK   40  A    between atoms: _100  and  _103
REMARK   41  A    between atoms: _103  and  _104
REMARK   42  A    between atoms: _110  and  _112
REMARK   43  A    between atoms: _123  and  _126
REMARK   44  A    between atoms: _126  and  _127
REMARK   45  A    between atoms: _135  and  _136
REMARK   46  A    between atoms: _144  and  _146
REMARK   47  A    between atoms: _146  and  _147
REMARK   48  A    between atoms: _146  and  _149
REMARK   49  A    between atoms: _149  and  _150
REMARK   50  A    between atoms: _150  and  _151
REMARK   51  A    between atoms: _154  and  _156
REMARK   52  A    between atoms: _156  and  _157
REMARK   53  A    between atoms: _156  and  _159
REMARK   54  A    between atoms: _159  and  _160
REMARK   55  A    between atoms: _165  and  _167
REMARK   56  A    between atoms: _167  and  _168
REMARK   57  A    between atoms: _167  and  _170
REMARK   58  A    between atoms: _170  and  _171
REMARK   59  A    between atoms: _171  and  _172
REMARK   60  A    between atoms: _175  and  _177
REMARK   61  A    between atoms: _177  and  _178
REMARK   62  A    between atoms: _177  and  _180
REMARK   63  A    between atoms: _180  and  _181
REMARK   64  A    between atoms: _184  and  _186
REMARK   65  A    between atoms: _186  and  _187
REMARK   66  A    between atoms: _186  and  _189
REMARK   67  A    between atoms: _189  and  _190
REMARK   68  A    between atoms: _191  and  ZN_395
REMARK   69  A    between atoms: _195  and  _197
REMARK   70  A    between atoms: _197  and  _198
REMARK   71  A    between atoms: _197  and  _200
REMARK   72  A    between atoms: _200  and  _201
REMARK   73  A    between atoms: _204  and  _206
REMARK   74  A    between atoms: _206  and  _207
REMARK   75  A    between atoms: _206  and  _209
REMARK   76  A    between atoms: _212  and  _214
REMARK   77  A    between atoms: _214  and  _215
REMARK   78  A    between atoms: _214  and  _217
REMARK   79  A    between atoms: _217  and  _218
REMARK   80  A    between atoms: _223  and  _225
REMARK   81  A    between atoms: _225  and  _226
REMARK   82  A    between atoms: _225  and  _228
REMARK   83  A    between atoms: _228  and  _229
REMARK   84  A    between atoms: _235  and  _237
REMARK   85  A    between atoms: _237  and  _238
REMARK   86  A    between atoms: _240  and  _242
REMARK   87  A    between atoms: _242  and  _243
REMARK   88  A    between atoms: _246  and  _248
REMARK   89  A    between atoms: _248  and  _249
REMARK   90  A    between atoms: _248  and  _251
REMARK   91  A    between atoms: _251  and  _252
REMARK   92  A    between atoms: _255  and  _257
REMARK   93  A    between atoms: _257  and  _258
REMARK   94  A    between atoms: _261  and  _263
REMARK   95  A    between atoms: _263  and  _264
REMARK   96  A    between atoms: _263  and  _266
REMARK   97  A    between atoms: _269  and  _271
REMARK   98  A    between atoms: _271  and  _272
REMARK   99  A    between atoms: _271  and  _274
REMARK  100  A    between atoms: _277  and  _279
REMARK  101  A    between atoms: _279  and  _280
REMARK  102  A    between atoms: _279  and  _282
REMARK  103  A    between atoms: _282  and  _283
REMARK  104  A    between atoms: _285  and  _287
REMARK  105  A    between atoms: _287  and  _288
REMARK  106  A    between atoms: _287  and  _290
REMARK  107  A    between atoms: _290  and  _291
REMARK  108  A    between atoms: _294  and  _296
REMARK  109  A    between atoms: _296  and  _297
REMARK  110  A    between atoms: _296  and  _299
REMARK  111  A    between atoms: _299  and  _300
REMARK  112  A    between atoms: _303  and  _305
REMARK  113  A    between atoms: _305  and  _306
REMARK  114  A    between atoms: _305  and  _308
REMARK  115  A    between atoms: _308  and  _309
REMARK  116  A    between atoms: _313  and  _314
REMARK  117  A    between atoms: _320  and  _321
REMARK  118  A    between atoms: _326  and  _328
REMARK  119  A    between atoms: _328  and  _329
REMARK  120  A    between atoms: _328  and  _331
REMARK  121  A    between atoms: _331  and  _332
REMARK  122  A    between atoms: _335  and  _337
REMARK  123  A    between atoms: _337  and  _338
REMARK  124  A    between atoms: _337  and  _340
REMARK  125  A    between atoms: _340  and  _341
REMARK  126  A    between atoms: _343  and  _345
REMARK  127  A    between atoms: _345  and  _346
REMARK  128  A    between atoms: _345  and  _348
REMARK  129  A    between atoms: _351  and  _353
REMARK  130  A    between atoms: _353  and  _354
REMARK  131  A    between atoms: _353  and  _356
REMARK  132  A    between atoms: _356  and  _357
REMARK  133  A    between atoms: _367  and  _369
REMARK  134  A    between atoms: _369  and  _370
REMARK  135  A    between atoms: _369  and  _372
REMARK  136  A    between atoms: _372  and  _373
REMARK  137  A    between atoms: _378  and  _380
REMARK  138  A    between atoms: _380  and  _381
REMARK  139  A    between atoms: _380  and  _383
REMARK  140  A    between atoms: _383  and  _384
REMARK  141  A    between atoms: _384  and  _385
REMARK  142  A    between atoms: _385  and  _386
REMARK                            x       y       z     vdW  Elec       q    Type
REMARK                         _______ _______ _______ _____ _____    ______ ____
ROOT
ATOM      1  O   HOH     1      -1.094  -1.223  22.044  0.00  0.00    +0.000 OA
ENDROOT
TORSDOF 0
REMARK  Name = ../refined-set-2016/3ml5/3ml5_pocket.pdb
REMARK  142 active torsions:
REMARK  status: ('A' for Active; 'I' for Inactive)
REMARK    1  A    between atoms: _1  and  _5
REMARK    2  A    between atoms: _5  and  _6
REMARK    3  A    between atoms: _8  and  _10
REMARK    4  A    between atoms: _10  and  _11
REMARK    5  A    between atoms: _10  and  _13
REMARK    6  A    between atoms: _13  and  _14
REMARK    7  A    between atoms: _24  and  _26
REMARK    8  A    between atoms: _26  and  _27
REMARK    9  A    between atoms: _26  and  _29
REMARK   10  A    between atoms: _29  and  _30
REMARK   11  A    between atoms: _35  and  _36
REMARK   12  A    between atoms: _38  and  _40
REMARK   13  A    between atoms: _40  and  _41
REMARK   14  A    between atoms: _40  and  _43
REMARK   15  A    between atoms: _43  and  _44
REMARK   16  A    between atoms: _47  and  _48
REMARK   17  A    between atoms: _53  and  _55
REMARK   18  A    between atoms: _55  and  _56
REMARK   19  A    between atoms: _55  and  _58
REMARK   20  A    between atoms: _58  and  _59
REMARK   21  A    between atoms: _61  and  _63
REMARK   22  A    between atoms: _63  and  _64
REMARK   23  A    between atoms: _63  and  _66
REMARK   24  A    between atoms: _66  and  _67
REMARK   25  A    between atoms: _67  and  _68
REMARK   26  A    between atoms: _73  and  _75
REMARK   27  A    between atoms: _75  and  _76
REMARK   28  A    between atoms: _75  and  _78
REMARK   29  A    between atoms: _78  and  _79
REMARK   30  A    between atoms: _79  and  _80
REMARK   31  A    between atoms: _80  and  _81
REMARK   32  A    between atoms: _81  and  _82
REMARK   33  A    between atoms: _86  and  _88
REMARK   34  A    between atoms: _88  and  _89
REMARK   35  A    between atoms: _88  and  _91
REMARK   36  A    between atoms: _91  and  _92
REMARK   37  A    between atoms: _92  and  _93
REMARK   38  A    between atoms: _98  and  _100
REMARK   39  A    between atoms: _100  and  _101
REMARK   40  A    between atoms: _100  and  _103
REMARK   41  A    between atoms: _103  and  _104
REMARK   42  A    between atoms: _110  and  _112
REMARK   43  A    between atoms: _123  and  _126
REMARK   44  A    between atoms: _126  and  _127
REMARK   45  A    between atoms: _135  and  _136
REMARK   46  A    between atoms: _144  and  _146
REMARK   47  A    between atoms: _146  and  _147
REMARK   48  A    between atoms: _146  and  _149
REMARK   49  A    between atoms: _149  and  _150
REMARK   50  A    between atoms: _150  and  _151
REMARK   51  A    between atoms: _154  and  _156
REMARK   52  A    between atoms: _156  and  _157
REMARK   53  A    between atoms: _156  and  _159
REMARK   54  A    between atoms: _159  and  _160
REMARK   55  A    between atoms: _165  and  _167
REMARK   56  A    between atoms: _167  and  _168
REMARK   57  A    between atoms: _167  and  _170
REMARK   58  A    between atoms: _170  and  _171
REMARK   59  A    between atoms: _171  and  _172
REMARK   60  A    between atoms: _175  and  _177
REMARK   61  A    between atoms: _177  and  _178
REMARK   62  A    between atoms: _177  and  _180
REMARK   63  A    between atoms: _180  and  _181
REMARK   64  A    between atoms: _184  and  _186
REMARK   65  A    between atoms: _186  and  _187
REMARK   66  A    between atoms: _186  and  _189
REMARK   67  A    between atoms: _189  and  _190
REMARK   68  A    between atoms: _191  and  ZN_395
REMARK   69  A    between atoms: _195  and  _197
REMARK   70  A    between atoms: _197  and  _198
REMARK   71  A    between atoms: _197  and  _200
REMARK   72  A    between atoms: _200  and  _201
REMARK   73  A    between atoms: _204  and  _206
REMARK   74  A    between atoms: _206  and  _207
REMARK   75  A    between atoms: _206  and  _209
REMARK   76  A    between atoms: _212  and  _214
REMARK   77  A    between atoms: _214  and  _215
REMARK   78  A    between atoms: _214  and  _217
REMARK   79  A    between atoms: _217  and  _218
REMARK   80  A    between atoms: _223  and  _225
REMARK   81  A    between atoms: _225  and  _226
REMARK   82  A    between atoms: _225  and  _228
REMARK   83  A    between atoms: _228  and  _229
REMARK   84  A    between atoms: _235  and  _237
REMARK   85  A    between atoms: _237  and  _238
REMARK   86  A    between atoms: _240  and  _242
REMARK   87  A    between atoms: _242  and  _243
REMARK   88  A    between atoms: _246  and  _248
REMARK   89  A    between atoms: _248  and  _249
REMARK   90  A    between atoms: _248  and  _251
REMARK   91  A    between atoms: _251  and  _252
REMARK   92  A    between atoms: _255  and  _257
REMARK   93  A    between atoms: _257  and  _258
REMARK   94  A    between atoms: _261  and  _263
REMARK   95  A    between atoms: _263  and  _264
REMARK   96  A    between atoms: _263  and  _266
REMARK   97  A    between atoms: _269  and  _271
REMARK   98  A    between atoms: _271  and  _272
REMARK   99  A    between atoms: _271  and  _274
REMARK  100  A    between atoms: _277  and  _279
REMARK  101  A    between atoms: _279  and  _280
REMARK  102  A    between atoms: _279  and  _282
REMARK  103  A    between atoms: _282  and  _283
REMARK  104  A    between atoms: _285  and  _287
REMARK  105  A    between atoms: _287  and  _288
REMARK  106  A    between atoms: _287  and  _290
REMARK  107  A    between atoms: _290  and  _291
REMARK  108  A    between atoms: _294  and  _296
REMARK  109  A    between atoms: _296  and  _297
REMARK  110  A    between atoms: _296  and  _299
REMARK  111  A    between atoms: _299  and  _300
REMARK  112  A    between atoms: _303  and  _305
REMARK  113  A    between atoms: _305  and  _306
REMARK  114  A    between atoms: _305  and  _308
REMARK  115  A    between atoms: _308  and  _309
REMARK  116  A    between atoms: _313  and  _314
REMARK  117  A    between atoms: _320  and  _321
REMARK  118  A    between atoms: _326  and  _328
REMARK  119  A    between atoms: _328  and  _329
REMARK  120  A    between atoms: _328  and  _331
REMARK  121  A    between atoms: _331  and  _332
REMARK  122  A    between atoms: _335  and  _337
REMARK  123  A    between atoms: _337  and  _338
REMARK  124  A    between atoms: _337  and  _340
REMARK  125  A    between atoms: _340  and  _341
REMARK  126  A    between atoms: _343  and  _345
REMARK  127  A    between atoms: _345  and  _346
REMARK  128  A    between atoms: _345  and  _348
REMARK  129  A    between atoms: _351  and  _353
REMARK  130  A    between atoms: _353  and  _354
REMARK  131  A    between atoms: _353  and  _356
REMARK  132  A    between atoms: _356  and  _357
REMARK  133  A    between atoms: _367  and  _369
REMARK  134  A    between atoms: _369  and  _370
REMARK  135  A    between atoms: _369  and  _372
REMARK  136  A    between atoms: _372  and  _373
REMARK  137  A    between atoms: _378  and  _380
REMARK  138  A    between atoms: _380  and  _381
REMARK  139  A    between atoms: _380  and  _383
REMARK  140  A    between atoms: _383  and  _384
REMARK  141  A    between atoms: _384  and  _385
REMARK  142  A    between atoms: _385  and  _386
REMARK                            x       y       z     vdW  Elec       q    Type
REMARK                         _______ _______ _______ _____ _____    ______ ____
ROOT
ATOM      1  O   HOH     1      -8.253   2.634  21.734  0.00  0.00    +0.000 OA
ENDROOT
TORSDOF 0
