REMARK  Name = ../refined-set-2016/2jfh/2jfh_pocket.pdb
REMARK  223 active torsions:
REMARK  status: ('A' for Active; 'I' for Inactive)
REMARK    1  A    between atoms: _1  and  _3
REMARK    2  A    between atoms: _3  and  _4
REMARK    3  A    between atoms: _3  and  _6
REMARK    4  A    between atoms: _6  and  _7
REMARK    5  A    between atoms: _10  and  _12
REMARK    6  A    between atoms: _12  and  _13
REMARK    7  A    between atoms: _12  and  _15
REMARK    8  A    between atoms: _15  and  _16
REMARK    9  A    between atoms: _19  and  _21
REMARK   10  A    between atoms: _21  and  _22
REMARK   11  A    between atoms: _24  and  _26
REMARK   12  A    between atoms: _26  and  _27
REMARK   13  A    between atoms: _26  and  _29
REMARK   14  A    between atoms: _29  and  _30
REMARK   15  A    between atoms: _33  and  _35
REMARK   16  A    between atoms: _35  and  _36
REMARK   17  A    between atoms: _38  and  _40
REMARK   18  A    between atoms: _40  and  _41
REMARK   19  A    between atoms: _40  and  _43
REMARK   20  A    between atoms: _43  and  _44
REMARK   21  A    between atoms: _47  and  _49
REMARK   22  A    between atoms: _49  and  _50
REMARK   23  A    between atoms: _49  and  _52
REMARK   24  A    between atoms: _52  and  _53
REMARK   25  A    between atoms: _53  and  _54
REMARK   26  A    between atoms: _56  and  _58
REMARK   27  A    between atoms: _58  and  _59
REMARK   28  A    between atoms: _58  and  _61
REMARK   29  A    between atoms: _61  and  _62
REMARK   30  A    between atoms: _65  and  _67
REMARK   31  A    between atoms: _67  and  _68
REMARK   32  A    between atoms: _67  and  _70
REMARK   33  A    between atoms: _70  and  _71
REMARK   34  A    between atoms: _74  and  _76
REMARK   35  A    between atoms: _76  and  _77
REMARK   36  A    between atoms: _76  and  _79
REMARK   37  A    between atoms: _79  and  _80
REMARK   38  A    between atoms: _80  and  _81
REMARK   39  A    between atoms: _81  and  _82
REMARK   40  A    between atoms: _92  and  _93
REMARK   41  A    between atoms: _99  and  _100
REMARK   42  A    between atoms: _105  and  _107
REMARK   43  A    between atoms: _107  and  _108
REMARK   44  A    between atoms: _110  and  _112
REMARK   45  A    between atoms: _112  and  _113
REMARK   46  A    between atoms: _112  and  _115
REMARK   47  A    between atoms: _115  and  _116
REMARK   48  A    between atoms: _118  and  _120
REMARK   49  A    between atoms: _120  and  _121
REMARK   50  A    between atoms: _120  and  _123
REMARK   51  A    between atoms: _123  and  _124
REMARK   52  A    between atoms: _127  and  _129
REMARK   53  A    between atoms: _129  and  _130
REMARK   54  A    between atoms: _133  and  _135
REMARK   55  A    between atoms: _135  and  _136
REMARK   56  A    between atoms: _135  and  _138
REMARK   57  A    between atoms: _138  and  _139
REMARK   58  A    between atoms: _142  and  _143
REMARK   59  A    between atoms: _148  and  _150
REMARK   60  A    between atoms: _150  and  _151
REMARK   61  A    between atoms: _153  and  _155
REMARK   62  A    between atoms: _155  and  _156
REMARK   63  A    between atoms: _155  and  _158
REMARK   64  A    between atoms: _158  and  _159
REMARK   65  A    between atoms: _162  and  _164
REMARK   66  A    between atoms: _164  and  _165
REMARK   67  A    between atoms: _168  and  _170
REMARK   68  A    between atoms: _170  and  _171
REMARK   69  A    between atoms: _170  and  _173
REMARK   70  A    between atoms: _173  and  _174
REMARK   71  A    between atoms: _179  and  _181
REMARK   72  A    between atoms: _181  and  _182
REMARK   73  A    between atoms: _181  and  _184
REMARK   74  A    between atoms: _184  and  _185
REMARK   75  A    between atoms: _187  and  _189
REMARK   76  A    between atoms: _189  and  _190
REMARK   77  A    between atoms: _189  and  _192
REMARK   78  A    between atoms: _192  and  _193
REMARK   79  A    between atoms: _193  and  _194
REMARK   80  A    between atoms: _194  and  _195
REMARK   81  A    between atoms: _195  and  _196
REMARK   82  A    between atoms: _200  and  _202
REMARK   83  A    between atoms: _202  and  _203
REMARK   84  A    between atoms: _202  and  _205
REMARK   85  A    between atoms: _205  and  _206
REMARK   86  A    between atoms: _211  and  _213
REMARK   87  A    between atoms: _213  and  _214
REMARK   88  A    between atoms: _213  and  _216
REMARK   89  A    between atoms: _216  and  _217
REMARK   90  A    between atoms: _219  and  _221
REMARK   91  A    between atoms: _221  and  _222
REMARK   92  A    between atoms: _221  and  _224
REMARK   93  A    between atoms: _224  and  _225
REMARK   94  A    between atoms: _227  and  _229
REMARK   95  A    between atoms: _229  and  _230
REMARK   96  A    between atoms: _229  and  _232
REMARK   97  A    between atoms: _232  and  _233
REMARK   98  A    between atoms: _239  and  _241
REMARK   99  A    between atoms: _241  and  _242
REMARK  100  A    between atoms: _241  and  _244
REMARK  101  A    between atoms: _244  and  _245
REMARK  102  A    between atoms: _245  and  _246
REMARK  103  A    between atoms: _251  and  _253
REMARK  104  A    between atoms: _253  and  _254
REMARK  105  A    between atoms: _253  and  _256
REMARK  106  A    between atoms: _256  and  _257
REMARK  107  A    between atoms: _260  and  _262
REMARK  108  A    between atoms: _262  and  _263
REMARK  109  A    between atoms: _262  and  _265
REMARK  110  A    between atoms: _265  and  _266
REMARK  111  A    between atoms: _271  and  _273
REMARK  112  A    between atoms: _273  and  _274
REMARK  113  A    between atoms: _273  and  _276
REMARK  114  A    between atoms: _276  and  _277
REMARK  115  A    between atoms: _280  and  _282
REMARK  116  A    between atoms: _282  and  _283
REMARK  117  A    between atoms: _282  and  _285
REMARK  118  A    between atoms: _285  and  _286
REMARK  119  A    between atoms: _286  and  _287
REMARK  120  A    between atoms: _287  and  _288
REMARK  121  A    between atoms: _297  and  _299
REMARK  122  A    between atoms: _299  and  _300
REMARK  123  A    between atoms: _299  and  _306
REMARK  124  A    between atoms: _300  and  _301
REMARK  125  A    between atoms: _301  and  _302
REMARK  126  A    between atoms: _302  and  _303
REMARK  127  A    between atoms: _303  and  _304
REMARK  128  A    between atoms: _311  and  _313
REMARK  129  A    between atoms: _313  and  _314
REMARK  130  A    between atoms: _313  and  _316
REMARK  131  A    between atoms: _316  and  _317
REMARK  132  A    between atoms: _319  and  _321
REMARK  133  A    between atoms: _321  and  _322
REMARK  134  A    between atoms: _321  and  _324
REMARK  135  A    between atoms: _324  and  _325
REMARK  136  A    between atoms: _325  and  _326
REMARK  137  A    between atoms: _326  and  _327
REMARK  138  A    between atoms: _327  and  _328
REMARK  139  A    between atoms: _332  and  _334
REMARK  140  A    between atoms: _334  and  _335
REMARK  141  A    between atoms: _338  and  _340
REMARK  142  A    between atoms: _340  and  _341
REMARK  143  A    between atoms: _340  and  _343
REMARK  144  A    between atoms: _343  and  _344
REMARK  145  A    between atoms: _347  and  _349
REMARK  146  A    between atoms: _349  and  _350
REMARK  147  A    between atoms: _349  and  _352
REMARK  148  A    between atoms: _352  and  _353
REMARK  149  A    between atoms: _358  and  _360
REMARK  150  A    between atoms: _360  and  _361
REMARK  151  A    between atoms: _360  and  _363
REMARK  152  A    between atoms: _363  and  _364
REMARK  153  A    between atoms: _367  and  _369
REMARK  154  A    between atoms: _369  and  _370
REMARK  155  A    between atoms: _372  and  _374
REMARK  156  A    between atoms: _374  and  _375
REMARK  157  A    between atoms: _374  and  _377
REMARK  158  A    between atoms: _377  and  _378
REMARK  159  A    between atoms: _378  and  _379
REMARK  160  A    between atoms: _379  and  _380
REMARK  161  A    between atoms: _380  and  _381
REMARK  162  A    between atoms: _386  and  _387
REMARK  163  A    between atoms: _392  and  _394
REMARK  164  A    between atoms: _394  and  _395
REMARK  165  A    between atoms: _398  and  _400
REMARK  166  A    between atoms: _400  and  _401
REMARK  167  A    between atoms: _400  and  _403
REMARK  168  A    between atoms: _405  and  _407
REMARK  169  A    between atoms: _407  and  _408
REMARK  170  A    between atoms: _411  and  _413
REMARK  171  A    between atoms: _413  and  _414
REMARK  172  A    between atoms: _413  and  _416
REMARK  173  A    between atoms: _416  and  _417
REMARK  174  A    between atoms: _419  and  _421
REMARK  175  A    between atoms: _421  and  _422
REMARK  176  A    between atoms: _421  and  _424
REMARK  177  A    between atoms: _424  and  _425
REMARK  178  A    between atoms: _428  and  _430
REMARK  179  A    between atoms: _430  and  _431
REMARK  180  A    between atoms: _430  and  _433
REMARK  181  A    between atoms: _433  and  _434
REMARK  182  A    between atoms: _437  and  _439
REMARK  183  A    between atoms: _439  and  _440
REMARK  184  A    between atoms: _439  and  _442
REMARK  185  A    between atoms: _442  and  _443
REMARK  186  A    between atoms: _443  and  _444
REMARK  187  A    between atoms: _449  and  _451
REMARK  188  A    between atoms: _451  and  _452
REMARK  189  A    between atoms: _451  and  _454
REMARK  190  A    between atoms: _454  and  _455
REMARK  191  A    between atoms: _461  and  _463
REMARK  192  A    between atoms: _463  and  _464
REMARK  193  A    between atoms: _463  and  _466
REMARK  194  A    between atoms: _466  and  _467
REMARK  195  A    between atoms: _467  and  _468
REMARK  196  A    between atoms: _468  and  _469
REMARK  197  A    between atoms: _469  and  _470
REMARK  198  A    between atoms: _474  and  _476
REMARK  199  A    between atoms: _476  and  _477
REMARK  200  A    between atoms: _476  and  _479
REMARK  201  A    between atoms: _479  and  _480
REMARK  202  A    between atoms: _485  and  _487
REMARK  203  A    between atoms: _487  and  _488
REMARK  204  A    between atoms: _487  and  _490
REMARK  205  A    between atoms: _490  and  _491
REMARK  206  A    between atoms: _497  and  _499
REMARK  207  A    between atoms: _499  and  _500
REMARK  208  A    between atoms: _499  and  _502
REMARK  209  A    between atoms: _502  and  _503
REMARK  210  A    between atoms: _503  and  _504
REMARK  211  A    between atoms: _507  and  _509
REMARK  212  A    between atoms: _509  and  _510
REMARK  213  A    between atoms: _509  and  _512
REMARK  214  A    between atoms: _512  and  _513
REMARK  215  A    between atoms: _513  and  _514
REMARK  216  A    between atoms: _519  and  _521
REMARK  217  A    between atoms: _521  and  _522
REMARK  218  A    between atoms: _521  and  _524
REMARK  219  A    between atoms: _524  and  _525
REMARK  220  A    between atoms: _525  and  _526
REMARK  221  A    between atoms: _526  and  _527
REMARK  222  A    between atoms: _536  and  _538
REMARK  223  A    between atoms: _538  and  _539
REMARK                            x       y       z     vdW  Elec       q    Type
REMARK                         _______ _______ _______ _____ _____    ______ ____
ROOT
ATOM      1  C   ILE A   2       9.848   1.887  16.815  0.00  0.00    +0.241 C 
ATOM      2  N   GLY A   3      10.398   2.924  17.438  0.00  0.00    -0.295 N 
ATOM      3  H   GLY A   3       9.798   3.540  18.023  0.00  0.00    +0.150 HD
ATOM      4  O   ILE A   2      10.498   1.103  16.088  0.00  0.00    -0.273 OA
ENDROOT
BRANCH   2   5
ATOM      5  CA  GLY A   3      11.814   3.219  17.324  0.00  0.00    +0.176 C 
BRANCH   5   6
ATOM      6  C   GLY A   3      12.096   4.338  16.341  0.00  0.00    +0.243 C 
ATOM      7  N   LEU A   4      12.823   5.352  16.800  0.00  0.00    -0.297 N 
ATOM      8  H   LEU A   4      13.083   5.374  17.807  0.00  0.00    +0.150 HD
ATOM      9  O   GLY A   3      11.666   4.289  15.189  0.00  0.00    -0.273 OA
BRANCH   7  10
ATOM     10  CA  LEU A   4      13.266   6.434  15.928  0.00  0.00    +0.149 C 
BRANCH  10  11
ATOM     11  C   LEU A   4      14.678   6.183  15.412  0.00  0.00    +0.241 C 
ATOM     12  N   GLY A   5      15.532   7.195  15.522  0.00  0.00    -0.296 N 
ATOM     13  H   GLY A   5      15.256   8.032  16.074  0.00  0.00    +0.150 HD
ATOM     14  O   LEU A   4      14.987   5.096  14.924  0.00  0.00    -0.273 OA
BRANCH  12  15
ATOM     15  CA  GLY A   5      16.841   7.164  14.892  0.00  0.00    +0.163 C 
BRANCH  15  16
ATOM     16  C   GLY A   5      16.756   7.194  13.379  0.00  0.00    +0.229 C 
ATOM     17  O   GLY A   5      15.668   7.313  12.811  0.00  0.00    -0.286 OA
ENDBRANCH  15  16
ENDBRANCH  12  15
ENDBRANCH  10  11
BRANCH  10  18
ATOM     18  CB  LEU A   4      13.205   7.774  16.663  0.00  0.00    +0.029 C 
BRANCH  18  19
ATOM     19  CG  LEU A   4      12.080   8.725  16.248  0.00  0.00    +0.002 C 
ATOM     20  CD2 LEU A   4      11.285   9.180  17.463  0.00  0.00    +0.000 C 
ATOM     21  CD1 LEU A   4      12.638   9.919  15.489  0.00  0.00    +0.000 C 
ENDBRANCH  18  19
ENDBRANCH  10  18
ENDBRANCH   7  10
ENDBRANCH   5   6
ENDBRANCH   2   5
BRANCH   1  22
ATOM     22  CA  ILE A   2       8.345   1.685  17.028  0.00  0.00    +0.148 C 
BRANCH  22  25
ATOM     23  C   ILE A   1       7.076   2.773  15.299  0.00  0.00    +0.238 C 
ATOM     24  O   ILE A   1       6.786   3.748  16.038  0.00  0.00    -0.274 OA
ATOM     25  N   ILE A   2       7.760   1.719  15.728  0.00  0.00    -0.297 N 
ATOM     26  H   ILE A   2       7.872   0.898  15.100  0.00  0.00    +0.150 HD
BRANCH  23  27
ATOM     27  CA  ILE A   1       6.601   2.710  13.843  0.00  0.00    +0.145 C 
BRANCH  27  28
ATOM     28  N   ILE A   1       5.180   3.029  13.823  0.00  0.00    -0.238 NA
ATOM     29  H   ILE A   1       4.893   4.013  14.000  0.00  0.00    +0.142 HD
ENDBRANCH  27  28
BRANCH  27  30
ATOM     30  CB  ILE A   1       7.387   3.720  12.974  0.00  0.00    +0.025 C 
ATOM     31  CG2 ILE A   1       8.939   3.593  13.144  0.00  0.00    +0.002 C 
BRANCH  30  32
ATOM     32  CG1 ILE A   1       6.896   3.670  11.527  0.00  0.00    +0.002 C 
ATOM     33  CD1 ILE A   1       7.263   4.904  10.724  0.00  0.00    +0.000 C 
ENDBRANCH  30  32
ENDBRANCH  27  30
ENDBRANCH  23  27
ENDBRANCH  22  25
BRANCH  22  34
ATOM     34  CB  ILE A   2       8.067   0.372  17.761  0.00  0.00    +0.027 C 
ATOM     35  CG2 ILE A   2       8.653   0.429  19.198  0.00  0.00    +0.002 C 
BRANCH  34  36
ATOM     36  CG1 ILE A   2       6.562   0.109  17.834  0.00  0.00    +0.002 C 
ATOM     37  CD1 ILE A   2       6.163  -1.209  18.349  0.00  0.00    +0.000 C 
ENDBRANCH  34  36
ENDBRANCH  22  34
ENDBRANCH   1  22
TORSDOF 16
REMARK  Name = ../refined-set-2016/2jfh/2jfh_pocket.pdb
REMARK  223 active torsions:
REMARK  status: ('A' for Active; 'I' for Inactive)
REMARK    1  A    between atoms: _1  and  _3
REMARK    2  A    between atoms: _3  and  _4
REMARK    3  A    between atoms: _3  and  _6
REMARK    4  A    between atoms: _6  and  _7
REMARK    5  A    between atoms: _10  and  _12
REMARK    6  A    between atoms: _12  and  _13
REMARK    7  A    between atoms: _12  and  _15
REMARK    8  A    between atoms: _15  and  _16
REMARK    9  A    between atoms: _19  and  _21
REMARK   10  A    between atoms: _21  and  _22
REMARK   11  A    between atoms: _24  and  _26
REMARK   12  A    between atoms: _26  and  _27
REMARK   13  A    between atoms: _26  and  _29
REMARK   14  A    between atoms: _29  and  _30
REMARK   15  A    between atoms: _33  and  _35
REMARK   16  A    between atoms: _35  and  _36
REMARK   17  A    between atoms: _38  and  _40
REMARK   18  A    between atoms: _40  and  _41
REMARK   19  A    between atoms: _40  and  _43
REMARK   20  A    between atoms: _43  and  _44
REMARK   21  A    between atoms: _47  and  _49
REMARK   22  A    between atoms: _49  and  _50
REMARK   23  A    between atoms: _49  and  _52
REMARK   24  A    between atoms: _52  and  _53
REMARK   25  A    between atoms: _53  and  _54
REMARK   26  A    between atoms: _56  and  _58
REMARK   27  A    between atoms: _58  and  _59
REMARK   28  A    between atoms: _58  and  _61
REMARK   29  A    between atoms: _61  and  _62
REMARK   30  A    between atoms: _65  and  _67
REMARK   31  A    between atoms: _67  and  _68
REMARK   32  A    between atoms: _67  and  _70
REMARK   33  A    between atoms: _70  and  _71
REMARK   34  A    between atoms: _74  and  _76
REMARK   35  A    between atoms: _76  and  _77
REMARK   36  A    between atoms: _76  and  _79
REMARK   37  A    between atoms: _79  and  _80
REMARK   38  A    between atoms: _80  and  _81
REMARK   39  A    between atoms: _81  and  _82
REMARK   40  A    between atoms: _92  and  _93
REMARK   41  A    between atoms: _99  and  _100
REMARK   42  A    between atoms: _105  and  _107
REMARK   43  A    between atoms: _107  and  _108
REMARK   44  A    between atoms: _110  and  _112
REMARK   45  A    between atoms: _112  and  _113
REMARK   46  A    between atoms: _112  and  _115
REMARK   47  A    between atoms: _115  and  _116
REMARK   48  A    between atoms: _118  and  _120
REMARK   49  A    between atoms: _120  and  _121
REMARK   50  A    between atoms: _120  and  _123
REMARK   51  A    between atoms: _123  and  _124
REMARK   52  A    between atoms: _127  and  _129
REMARK   53  A    between atoms: _129  and  _130
REMARK   54  A    between atoms: _133  and  _135
REMARK   55  A    between atoms: _135  and  _136
REMARK   56  A    between atoms: _135  and  _138
REMARK   57  A    between atoms: _138  and  _139
REMARK   58  A    between atoms: _142  and  _143
REMARK   59  A    between atoms: _148  and  _150
REMARK   60  A    between atoms: _150  and  _151
REMARK   61  A    between atoms: _153  and  _155
REMARK   62  A    between atoms: _155  and  _156
REMARK   63  A    between atoms: _155  and  _158
REMARK   64  A    between atoms: _158  and  _159
REMARK   65  A    between atoms: _162  and  _164
REMARK   66  A    between atoms: _164  and  _165
REMARK   67  A    between atoms: _168  and  _170
REMARK   68  A    between atoms: _170  and  _171
REMARK   69  A    between atoms: _170  and  _173
REMARK   70  A    between atoms: _173  and  _174
REMARK   71  A    between atoms: _179  and  _181
REMARK   72  A    between atoms: _181  and  _182
REMARK   73  A    between atoms: _181  and  _184
REMARK   74  A    between atoms: _184  and  _185
REMARK   75  A    between atoms: _187  and  _189
REMARK   76  A    between atoms: _189  and  _190
REMARK   77  A    between atoms: _189  and  _192
REMARK   78  A    between atoms: _192  and  _193
REMARK   79  A    between atoms: _193  and  _194
REMARK   80  A    between atoms: _194  and  _195
REMARK   81  A    between atoms: _195  and  _196
REMARK   82  A    between atoms: _200  and  _202
REMARK   83  A    between atoms: _202  and  _203
REMARK   84  A    between atoms: _202  and  _205
REMARK   85  A    between atoms: _205  and  _206
REMARK   86  A    between atoms: _211  and  _213
REMARK   87  A    between atoms: _213  and  _214
REMARK   88  A    between atoms: _213  and  _216
REMARK   89  A    between atoms: _216  and  _217
REMARK   90  A    between atoms: _219  and  _221
REMARK   91  A    between atoms: _221  and  _222
REMARK   92  A    between atoms: _221  and  _224
REMARK   93  A    between atoms: _224  and  _225
REMARK   94  A    between atoms: _227  and  _229
REMARK   95  A    between atoms: _229  and  _230
REMARK   96  A    between atoms: _229  and  _232
REMARK   97  A    between atoms: _232  and  _233
REMARK   98  A    between atoms: _239  and  _241
REMARK   99  A    between atoms: _241  and  _242
REMARK  100  A    between atoms: _241  and  _244
REMARK  101  A    between atoms: _244  and  _245
REMARK  102  A    between atoms: _245  and  _246
REMARK  103  A    between atoms: _251  and  _253
REMARK  104  A    between atoms: _253  and  _254
REMARK  105  A    between atoms: _253  and  _256
REMARK  106  A    between atoms: _256  and  _257
REMARK  107  A    between atoms: _260  and  _262
REMARK  108  A    between atoms: _262  and  _263
REMARK  109  A    between atoms: _262  and  _265
REMARK  110  A    between atoms: _265  and  _266
REMARK  111  A    between atoms: _271  and  _273
REMARK  112  A    between atoms: _273  and  _274
REMARK  113  A    between atoms: _273  and  _276
REMARK  114  A    between atoms: _276  and  _277
REMARK  115  A    between atoms: _280  and  _282
REMARK  116  A    between atoms: _282  and  _283
REMARK  117  A    between atoms: _282  and  _285
REMARK  118  A    between atoms: _285  and  _286
REMARK  119  A    between atoms: _286  and  _287
REMARK  120  A    between atoms: _287  and  _288
REMARK  121  A    between atoms: _297  and  _299
REMARK  122  A    between atoms: _299  and  _300
REMARK  123  A    between atoms: _299  and  _306
REMARK  124  A    between atoms: _300  and  _301
REMARK  125  A    between atoms: _301  and  _302
REMARK  126  A    between atoms: _302  and  _303
REMARK  127  A    between atoms: _303  and  _304
REMARK  128  A    between atoms: _311  and  _313
REMARK  129  A    between atoms: _313  and  _314
REMARK  130  A    between atoms: _313  and  _316
REMARK  131  A    between atoms: _316  and  _317
REMARK  132  A    between atoms: _319  and  _321
REMARK  133  A    between atoms: _321  and  _322
REMARK  134  A    between atoms: _321  and  _324
REMARK  135  A    between atoms: _324  and  _325
REMARK  136  A    between atoms: _325  and  _326
REMARK  137  A    between atoms: _326  and  _327
REMARK  138  A    between atoms: _327  and  _328
REMARK  139  A    between atoms: _332  and  _334
REMARK  140  A    between atoms: _334  and  _335
REMARK  141  A    between atoms: _338  and  _340
REMARK  142  A    between atoms: _340  and  _341
REMARK  143  A    between atoms: _340  and  _343
REMARK  144  A    between atoms: _343  and  _344
REMARK  145  A    between atoms: _347  and  _349
REMARK  146  A    between atoms: _349  and  _350
REMARK  147  A    between atoms: _349  and  _352
REMARK  148  A    between atoms: _352  and  _353
REMARK  149  A    between atoms: _358  and  _360
REMARK  150  A    between atoms: _360  and  _361
REMARK  151  A    between atoms: _360  and  _363
REMARK  152  A    between atoms: _363  and  _364
REMARK  153  A    between atoms: _367  and  _369
REMARK  154  A    between atoms: _369  and  _370
REMARK  155  A    between atoms: _372  and  _374
REMARK  156  A    between atoms: _374  and  _375
REMARK  157  A    between atoms: _374  and  _377
REMARK  158  A    between atoms: _377  and  _378
REMARK  159  A    between atoms: _378  and  _379
REMARK  160  A    between atoms: _379  and  _380
REMARK  161  A    between atoms: _380  and  _381
REMARK  162  A    between atoms: _386  and  _387
REMARK  163  A    between atoms: _392  and  _394
REMARK  164  A    between atoms: _394  and  _395
REMARK  165  A    between atoms: _398  and  _400
REMARK  166  A    between atoms: _400  and  _401
REMARK  167  A    between atoms: _400  and  _403
REMARK  168  A    between atoms: _405  and  _407
REMARK  169  A    between atoms: _407  and  _408
REMARK  170  A    between atoms: _411  and  _413
REMARK  171  A    between atoms: _413  and  _414
REMARK  172  A    between atoms: _413  and  _416
REMARK  173  A    between atoms: _416  and  _417
REMARK  174  A    between atoms: _419  and  _421
REMARK  175  A    between atoms: _421  and  _422
REMARK  176  A    between atoms: _421  and  _424
REMARK  177  A    between atoms: _424  and  _425
REMARK  178  A    between atoms: _428  and  _430
REMARK  179  A    between atoms: _430  and  _431
REMARK  180  A    between atoms: _430  and  _433
REMARK  181  A    between atoms: _433  and  _434
REMARK  182  A    between atoms: _437  and  _439
REMARK  183  A    between atoms: _439  and  _440
REMARK  184  A    between atoms: _439  and  _442
REMARK  185  A    between atoms: _442  and  _443
REMARK  186  A    between atoms: _443  and  _444
REMARK  187  A    between atoms: _449  and  _451
REMARK  188  A    between atoms: _451  and  _452
REMARK  189  A    between atoms: _451  and  _454
REMARK  190  A    between atoms: _454  and  _455
REMARK  191  A    between atoms: _461  and  _463
REMARK  192  A    between atoms: _463  and  _464
REMARK  193  A    between atoms: _463  and  _466
REMARK  194  A    between atoms: _466  and  _467
REMARK  195  A    between atoms: _467  and  _468
REMARK  196  A    between atoms: _468  and  _469
REMARK  197  A    between atoms: _469  and  _470
REMARK  198  A    between atoms: _474  and  _476
REMARK  199  A    between atoms: _476  and  _477
REMARK  200  A    between atoms: _476  and  _479
REMARK  201  A    between atoms: _479  and  _480
REMARK  202  A    between atoms: _485  and  _487
REMARK  203  A    between atoms: _487  and  _488
REMARK  204  A    between atoms: _487  and  _490
REMARK  205  A    between atoms: _490  and  _491
REMARK  206  A    between atoms: _497  and  _499
REMARK  207  A    between atoms: _499  and  _500
REMARK  208  A    between atoms: _499  and  _502
REMARK  209  A    between atoms: _502  and  _503
REMARK  210  A    between atoms: _503  and  _504
REMARK  211  A    between atoms: _507  and  _509
REMARK  212  A    between atoms: _509  and  _510
REMARK  213  A    between atoms: _509  and  _512
REMARK  214  A    between atoms: _512  and  _513
REMARK  215  A    between atoms: _513  and  _514
REMARK  216  A    between atoms: _519  and  _521
REMARK  217  A    between atoms: _521  and  _522
REMARK  218  A    between atoms: _521  and  _524
REMARK  219  A    between atoms: _524  and  _525
REMARK  220  A    between atoms: _525  and  _526
REMARK  221  A    between atoms: _526  and  _527
REMARK  222  A    between atoms: _536  and  _538
REMARK  223  A    between atoms: _538  and  _539
REMARK                            x       y       z     vdW  Elec       q    Type
REMARK                         _______ _______ _______ _____ _____    ______ ____
ROOT
ATOM      1  CA  THR A   1      16.158   3.748  10.732  0.00  0.00    +0.160 C 
ENDROOT
BRANCH   1   2
ATOM      2  N   THR A   1      16.964   4.881  11.218  0.00  0.00    -0.237 NA
ATOM      3  H   THR A   1      17.494   4.758  12.104  0.00  0.00    +0.142 HD
ENDBRANCH   1   2
BRANCH   1   4
ATOM      4  CB  THR A   1      16.582   2.447  11.437  0.00  0.00    +0.134 C 
ATOM      5  CG2 THR A   1      15.581   1.296  11.197  0.00  0.00    +0.034 C 
BRANCH   4   6
ATOM      6  OG1 THR A   1      17.869   2.048  10.938  0.00  0.00    -0.383 OA
ATOM      7  HG1 THR A   1      18.150   1.211  11.386  0.00  0.00    +0.210 HD
ENDBRANCH   4   6
ENDBRANCH   1   4
BRANCH   1   8
ATOM      8  C   THR A   1      14.647   4.027  10.882  0.00  0.00    +0.227 C 
ATOM      9  O   THR A   1      13.880   3.868   9.928  0.00  0.00    -0.287 OA
ENDBRANCH   1   8
TORSDOF 4
REMARK  Name = ../refined-set-2016/2jfh/2jfh_pocket.pdb
REMARK  223 active torsions:
REMARK  status: ('A' for Active; 'I' for Inactive)
REMARK    1  A    between atoms: _1  and  _3
REMARK    2  A    between atoms: _3  and  _4
REMARK    3  A    between atoms: _3  and  _6
REMARK    4  A    between atoms: _6  and  _7
REMARK    5  A    between atoms: _10  and  _12
REMARK    6  A    between atoms: _12  and  _13
REMARK    7  A    between atoms: _12  and  _15
REMARK    8  A    between atoms: _15  and  _16
REMARK    9  A    between atoms: _19  and  _21
REMARK   10  A    between atoms: _21  and  _22
REMARK   11  A    between atoms: _24  and  _26
REMARK   12  A    between atoms: _26  and  _27
REMARK   13  A    between atoms: _26  and  _29
REMARK   14  A    between atoms: _29  and  _30
REMARK   15  A    between atoms: _33  and  _35
REMARK   16  A    between atoms: _35  and  _36
REMARK   17  A    between atoms: _38  and  _40
REMARK   18  A    between atoms: _40  and  _41
REMARK   19  A    between atoms: _40  and  _43
REMARK   20  A    between atoms: _43  and  _44
REMARK   21  A    between atoms: _47  and  _49
REMARK   22  A    between atoms: _49  and  _50
REMARK   23  A    between atoms: _49  and  _52
REMARK   24  A    between atoms: _52  and  _53
REMARK   25  A    between atoms: _53  and  _54
REMARK   26  A    between atoms: _56  and  _58
REMARK   27  A    between atoms: _58  and  _59
REMARK   28  A    between atoms: _58  and  _61
REMARK   29  A    between atoms: _61  and  _62
REMARK   30  A    between atoms: _65  and  _67
REMARK   31  A    between atoms: _67  and  _68
REMARK   32  A    between atoms: _67  and  _70
REMARK   33  A    between atoms: _70  and  _71
REMARK   34  A    between atoms: _74  and  _76
REMARK   35  A    between atoms: _76  and  _77
REMARK   36  A    between atoms: _76  and  _79
REMARK   37  A    between atoms: _79  and  _80
REMARK   38  A    between atoms: _80  and  _81
REMARK   39  A    between atoms: _81  and  _82
REMARK   40  A    between atoms: _92  and  _93
REMARK   41  A    between atoms: _99  and  _100
REMARK   42  A    between atoms: _105  and  _107
REMARK   43  A    between atoms: _107  and  _108
REMARK   44  A    between atoms: _110  and  _112
REMARK   45  A    between atoms: _112  and  _113
REMARK   46  A    between atoms: _112  and  _115
REMARK   47  A    between atoms: _115  and  _116
REMARK   48  A    between atoms: _118  and  _120
REMARK   49  A    between atoms: _120  and  _121
REMARK   50  A    between atoms: _120  and  _123
REMARK   51  A    between atoms: _123  and  _124
REMARK   52  A    between atoms: _127  and  _129
REMARK   53  A    between atoms: _129  and  _130
REMARK   54  A    between atoms: _133  and  _135
REMARK   55  A    between atoms: _135  and  _136
REMARK   56  A    between atoms: _135  and  _138
REMARK   57  A    between atoms: _138  and  _139
REMARK   58  A    between atoms: _142  and  _143
REMARK   59  A    between atoms: _148  and  _150
REMARK   60  A    between atoms: _150  and  _151
REMARK   61  A    between atoms: _153  and  _155
REMARK   62  A    between atoms: _155  and  _156
REMARK   63  A    between atoms: _155  and  _158
REMARK   64  A    between atoms: _158  and  _159
REMARK   65  A    between atoms: _162  and  _164
REMARK   66  A    between atoms: _164  and  _165
REMARK   67  A    between atoms: _168  and  _170
REMARK   68  A    between atoms: _170  and  _171
REMARK   69  A    between atoms: _170  and  _173
REMARK   70  A    between atoms: _173  and  _174
REMARK   71  A    between atoms: _179  and  _181
REMARK   72  A    between atoms: _181  and  _182
REMARK   73  A    between atoms: _181  and  _184
REMARK   74  A    between atoms: _184  and  _185
REMARK   75  A    between atoms: _187  and  _189
REMARK   76  A    between atoms: _189  and  _190
REMARK   77  A    between atoms: _189  and  _192
REMARK   78  A    between atoms: _192  and  _193
REMARK   79  A    between atoms: _193  and  _194
REMARK   80  A    between atoms: _194  and  _195
REMARK   81  A    between atoms: _195  and  _196
REMARK   82  A    between atoms: _200  and  _202
REMARK   83  A    between atoms: _202  and  _203
REMARK   84  A    between atoms: _202  and  _205
REMARK   85  A    between atoms: _205  and  _206
REMARK   86  A    between atoms: _211  and  _213
REMARK   87  A    between atoms: _213  and  _214
REMARK   88  A    between atoms: _213  and  _216
REMARK   89  A    between atoms: _216  and  _217
REMARK   90  A    between atoms: _219  and  _221
REMARK   91  A    between atoms: _221  and  _222
REMARK   92  A    between atoms: _221  and  _224
REMARK   93  A    between atoms: _224  and  _225
REMARK   94  A    between atoms: _227  and  _229
REMARK   95  A    between atoms: _229  and  _230
REMARK   96  A    between atoms: _229  and  _232
REMARK   97  A    between atoms: _232  and  _233
REMARK   98  A    between atoms: _239  and  _241
REMARK   99  A    between atoms: _241  and  _242
REMARK  100  A    between atoms: _241  and  _244
REMARK  101  A    between atoms: _244  and  _245
REMARK  102  A    between atoms: _245  and  _246
REMARK  103  A    between atoms: _251  and  _253
REMARK  104  A    between atoms: _253  and  _254
REMARK  105  A    between atoms: _253  and  _256
REMARK  106  A    between atoms: _256  and  _257
REMARK  107  A    between atoms: _260  and  _262
REMARK  108  A    between atoms: _262  and  _263
REMARK  109  A    between atoms: _262  and  _265
REMARK  110  A    between atoms: _265  and  _266
REMARK  111  A    between atoms: _271  and  _273
REMARK  112  A    between atoms: _273  and  _274
REMARK  113  A    between atoms: _273  and  _276
REMARK  114  A    between atoms: _276  and  _277
REMARK  115  A    between atoms: _280  and  _282
REMARK  116  A    between atoms: _282  and  _283
REMARK  117  A    between atoms: _282  and  _285
REMARK  118  A    between atoms: _285  and  _286
REMARK  119  A    between atoms: _286  and  _287
REMARK  120  A    between atoms: _287  and  _288
REMARK  121  A    between atoms: _297  and  _299
REMARK  122  A    between atoms: _299  and  _300
REMARK  123  A    between atoms: _299  and  _306
REMARK  124  A    between atoms: _300  and  _301
REMARK  125  A    between atoms: _301  and  _302
REMARK  126  A    between atoms: _302  and  _303
REMARK  127  A    between atoms: _303  and  _304
REMARK  128  A    between atoms: _311  and  _313
REMARK  129  A    between atoms: _313  and  _314
REMARK  130  A    between atoms: _313  and  _316
REMARK  131  A    between atoms: _316  and  _317
REMARK  132  A    between atoms: _319  and  _321
REMARK  133  A    between atoms: _321  and  _322
REMARK  134  A    between atoms: _321  and  _324
REMARK  135  A    between atoms: _324  and  _325
REMARK  136  A    between atoms: _325  and  _326
REMARK  137  A    between atoms: _326  and  _327
REMARK  138  A    between atoms: _327  and  _328
REMARK  139  A    between atoms: _332  and  _334
REMARK  140  A    between atoms: _334  and  _335
REMARK  141  A    between atoms: _338  and  _340
REMARK  142  A    between atoms: _340  and  _341
REMARK  143  A    between atoms: _340  and  _343
REMARK  144  A    between atoms: _343  and  _344
REMARK  145  A    between atoms: _347  and  _349
REMARK  146  A    between atoms: _349  and  _350
REMARK  147  A    between atoms: _349  and  _352
REMARK  148  A    between atoms: _352  and  _353
REMARK  149  A    between atoms: _358  and  _360
REMARK  150  A    between atoms: _360  and  _361
REMARK  151  A    between atoms: _360  and  _363
REMARK  152  A    between atoms: _363  and  _364
REMARK  153  A    between atoms: _367  and  _369
REMARK  154  A    between atoms: _369  and  _370
REMARK  155  A    between atoms: _372  and  _374
REMARK  156  A    between atoms: _374  and  _375
REMARK  157  A    between atoms: _374  and  _377
REMARK  158  A    between atoms: _377  and  _378
REMARK  159  A    between atoms: _378  and  _379
REMARK  160  A    between atoms: _379  and  _380
REMARK  161  A    between atoms: _380  and  _381
REMARK  162  A    between atoms: _386  and  _387
REMARK  163  A    between atoms: _392  and  _394
REMARK  164  A    between atoms: _394  and  _395
REMARK  165  A    between atoms: _398  and  _400
REMARK  166  A    between atoms: _400  and  _401
REMARK  167  A    between atoms: _400  and  _403
REMARK  168  A    between atoms: _405  and  _407
REMARK  169  A    between atoms: _407  and  _408
REMARK  170  A    between atoms: _411  and  _413
REMARK  171  A    between atoms: _413  and  _414
REMARK  172  A    between atoms: _413  and  _416
REMARK  173  A    between atoms: _416  and  _417
REMARK  174  A    between atoms: _419  and  _421
REMARK  175  A    between atoms: _421  and  _422
REMARK  176  A    between atoms: _421  and  _424
REMARK  177  A    between atoms: _424  and  _425
REMARK  178  A    between atoms: _428  and  _430
REMARK  179  A    between atoms: _430  and  _431
REMARK  180  A    between atoms: _430  and  _433
REMARK  181  A    between atoms: _433  and  _434
REMARK  182  A    between atoms: _437  and  _439
REMARK  183  A    between atoms: _439  and  _440
REMARK  184  A    between atoms: _439  and  _442
REMARK  185  A    between atoms: _442  and  _443
REMARK  186  A    between atoms: _443  and  _444
REMARK  187  A    between atoms: _449  and  _451
REMARK  188  A    between atoms: _451  and  _452
REMARK  189  A    between atoms: _451  and  _454
REMARK  190  A    between atoms: _454  and  _455
REMARK  191  A    between atoms: _461  and  _463
REMARK  192  A    between atoms: _463  and  _464
REMARK  193  A    between atoms: _463  and  _466
REMARK  194  A    between atoms: _466  and  _467
REMARK  195  A    between atoms: _467  and  _468
REMARK  196  A    between atoms: _468  and  _469
REMARK  197  A    between atoms: _469  and  _470
REMARK  198  A    between atoms: _474  and  _476
REMARK  199  A    between atoms: _476  and  _477
REMARK  200  A    between atoms: _476  and  _479
REMARK  201  A    between atoms: _479  and  _480
REMARK  202  A    between atoms: _485  and  _487
REMARK  203  A    between atoms: _487  and  _488
REMARK  204  A    between atoms: _487  and  _490
REMARK  205  A    between atoms: _490  and  _491
REMARK  206  A    between atoms: _497  and  _499
REMARK  207  A    between atoms: _499  and  _500
REMARK  208  A    between atoms: _499  and  _502
REMARK  209  A    between atoms: _502  and  _503
REMARK  210  A    between atoms: _503  and  _504
REMARK  211  A    between atoms: _507  and  _509
REMARK  212  A    between atoms: _509  and  _510
REMARK  213  A    between atoms: _509  and  _512
REMARK  214  A    between atoms: _512  and  _513
REMARK  215  A    between atoms: _513  and  _514
REMARK  216  A    between atoms: _519  and  _521
REMARK  217  A    between atoms: _521  and  _522
REMARK  218  A    between atoms: _521  and  _524
REMARK  219  A    between atoms: _524  and  _525
REMARK  220  A    between atoms: _525  and  _526
REMARK  221  A    between atoms: _526  and  _527
REMARK  222  A    between atoms: _536  and  _538
REMARK  223  A    between atoms: _538  and  _539
REMARK                            x       y       z     vdW  Elec       q    Type
REMARK                         _______ _______ _______ _____ _____    ______ ____
ROOT
ATOM      1  CA  THR A   3      10.374   3.646  24.766  0.00  0.00    +0.176 C 
ENDROOT
BRANCH   1   4
ATOM      2  C   ASP A   2       9.809   4.897  22.757  0.00  0.00    +0.241 C 
ATOM      3  O   ASP A   2       9.148   5.713  23.412  0.00  0.00    -0.273 OA
ATOM      4  N   THR A   3      10.425   3.866  23.318  0.00  0.00    -0.295 N 
ATOM      5  H   THR A   3      10.955   3.201  22.719  0.00  0.00    +0.150 HD
BRANCH   2   6
ATOM      6  CA  ASP A   2       9.900   4.999  21.242  0.00  0.00    +0.160 C 
BRANCH   6   8
ATOM      7  C   MET A   1       8.050   5.061  19.687  0.00  0.00    +0.238 C 
ATOM      8  N   ASP A   2       8.601   5.457  20.826  0.00  0.00    -0.297 N 
ATOM      9  H   ASP A   2       8.079   6.118  21.436  0.00  0.00    +0.150 HD
ATOM     10  O   MET A   1       8.631   4.336  18.874  0.00  0.00    -0.274 OA
BRANCH   7  11
ATOM     11  CA  MET A   1       6.673   5.650  19.395  0.00  0.00    +0.146 C 
BRANCH  11  12
ATOM     12  N   MET A   1       6.446   5.727  17.982  0.00  0.00    -0.238 NA
ATOM     13  H   MET A   1       6.668   4.910  17.378  0.00  0.00    +0.142 HD
ENDBRANCH  11  12
BRANCH  11  14
ATOM     14  CB  MET A   1       5.560   4.874  20.104  0.00  0.00    +0.038 C 
BRANCH  14  15
ATOM     15  CG  MET A   1       5.444   3.473  19.626  0.00  0.00    +0.060 C 
BRANCH  15  16
ATOM     16  SD  MET A   1       4.214   2.447  20.432  0.00  0.00    -0.139 S 
ATOM     17  CE  MET A   1       2.768   3.249  19.740  0.00  0.00    +0.069 C 
ENDBRANCH  15  16
ENDBRANCH  14  15
ENDBRANCH  11  14
ENDBRANCH   7  11
ENDBRANCH   6   8
BRANCH   6  18
ATOM     18  CB  ASP A   2      10.991   5.992  20.760  0.00  0.00    +0.143 C 
BRANCH  18  19
ATOM     19  CG  ASP A   2      12.381   5.375  20.700  0.00  0.00    +0.367 C 
ATOM     20  OD2 ASP A   2      12.865   4.854  21.735  0.00  0.00    -0.246 OA
ATOM     21  OD1 ASP A   2      13.002   5.415  19.622  0.00  0.00    -0.246 OA
ENDBRANCH  18  19
ENDBRANCH   6  18
ENDBRANCH   2   6
ENDBRANCH   1   4
BRANCH   1  22
ATOM     22  C   THR A   3      11.268   4.658  25.508  0.00  0.00    +0.243 C 
ATOM     23  O   THR A   3      11.088   4.863  26.701  0.00  0.00    -0.273 OA
ATOM     24  N   ARG A   4      12.212   5.267  24.766  0.00  0.00    -0.298 N 
ATOM     25  H   ARG A   4      12.304   4.962  23.776  0.00  0.00    +0.150 HD
BRANCH  24  26
ATOM     26  CA  ARG A   4      13.131   6.331  25.230  0.00  0.00    +0.137 C 
BRANCH  26  27
ATOM     27  C   ARG A   4      12.460   7.707  25.169  0.00  0.00    +0.227 C 
ATOM     28  O   ARG A   4      11.665   7.970  24.272  0.00  0.00    -0.286 OA
ENDBRANCH  26  27
BRANCH  26  29
ATOM     29  CB  ARG A   4      14.391   6.346  24.350  0.00  0.00    +0.031 C 
BRANCH  29  30
ATOM     30  CG  ARG A   4      15.153   5.014  24.304  0.00  0.00    +0.045 C 
BRANCH  30  31
ATOM     31  CD  ARG A   4      16.227   4.981  23.197  0.00  0.00    +0.174 C 
BRANCH  31  32
ATOM     32  NE  ARG A   4      15.679   4.885  21.840  0.00  0.00    -0.265 N 
ATOM     33  HE  ARG A   4      14.644   4.889  21.740  0.00  0.00    +0.259 HD
ATOM     34  CZ  ARG A   4      16.402   4.793  20.725  0.00  0.00    +0.342 C 
ATOM     35  NH2 ARG A   4      17.738   4.778  20.776  0.00  0.00    -0.292 N 
ATOM     36 HH21 ARG A   4      18.224   4.839  21.693  0.00  0.00    +0.255 HD
ATOM     37 HH22 ARG A   4      18.291   4.706  19.898  0.00  0.00    +0.255 HD
ATOM     38  NH1 ARG A   4      15.777   4.709  19.542  0.00  0.00    -0.292 N 
ATOM     39 HH11 ARG A   4      14.738   4.716  19.501  0.00  0.00    +0.255 HD
ATOM     40 HH12 ARG A   4      16.331   4.637  18.665  0.00  0.00    +0.255 HD
ENDBRANCH  31  32
ENDBRANCH  30  31
ENDBRANCH  29  30
ENDBRANCH  26  29
ENDBRANCH  24  26
ENDBRANCH   1  22
BRANCH   1  41
ATOM     41  CB  THR A   3      10.805   2.242  25.127  0.00  0.00    +0.137 C 
ATOM     42  CG2 THR A   3       9.748   1.230  24.684  0.00  0.00    +0.034 C 
BRANCH  41  43
ATOM     43  OG1 THR A   3      12.059   1.962  24.488  0.00  0.00    -0.382 OA
ATOM     44  HG1 THR A   3      12.348   1.044  24.720  0.00  0.00    +0.210 HD
ENDBRANCH  41  43
ENDBRANCH   1  41
TORSDOF 19
REMARK  Name = ../refined-set-2016/2jfh/2jfh_pocket.pdb
REMARK  223 active torsions:
REMARK  status: ('A' for Active; 'I' for Inactive)
REMARK    1  A    between atoms: _1  and  _3
REMARK    2  A    between atoms: _3  and  _4
REMARK    3  A    between atoms: _3  and  _6
REMARK    4  A    between atoms: _6  and  _7
REMARK    5  A    between atoms: _10  and  _12
REMARK    6  A    between atoms: _12  and  _13
REMARK    7  A    between atoms: _12  and  _15
REMARK    8  A    between atoms: _15  and  _16
REMARK    9  A    between atoms: _19  and  _21
REMARK   10  A    between atoms: _21  and  _22
REMARK   11  A    between atoms: _24  and  _26
REMARK   12  A    between atoms: _26  and  _27
REMARK   13  A    between atoms: _26  and  _29
REMARK   14  A    between atoms: _29  and  _30
REMARK   15  A    between atoms: _33  and  _35
REMARK   16  A    between atoms: _35  and  _36
REMARK   17  A    between atoms: _38  and  _40
REMARK   18  A    between atoms: _40  and  _41
REMARK   19  A    between atoms: _40  and  _43
REMARK   20  A    between atoms: _43  and  _44
REMARK   21  A    between atoms: _47  and  _49
REMARK   22  A    between atoms: _49  and  _50
REMARK   23  A    between atoms: _49  and  _52
REMARK   24  A    between atoms: _52  and  _53
REMARK   25  A    between atoms: _53  and  _54
REMARK   26  A    between atoms: _56  and  _58
REMARK   27  A    between atoms: _58  and  _59
REMARK   28  A    between atoms: _58  and  _61
REMARK   29  A    between atoms: _61  and  _62
REMARK   30  A    between atoms: _65  and  _67
REMARK   31  A    between atoms: _67  and  _68
REMARK   32  A    between atoms: _67  and  _70
REMARK   33  A    between atoms: _70  and  _71
REMARK   34  A    between atoms: _74  and  _76
REMARK   35  A    between atoms: _76  and  _77
REMARK   36  A    between atoms: _76  and  _79
REMARK   37  A    between atoms: _79  and  _80
REMARK   38  A    between atoms: _80  and  _81
REMARK   39  A    between atoms: _81  and  _82
REMARK   40  A    between atoms: _92  and  _93
REMARK   41  A    between atoms: _99  and  _100
REMARK   42  A    between atoms: _105  and  _107
REMARK   43  A    between atoms: _107  and  _108
REMARK   44  A    between atoms: _110  and  _112
REMARK   45  A    between atoms: _112  and  _113
REMARK   46  A    between atoms: _112  and  _115
REMARK   47  A    between atoms: _115  and  _116
REMARK   48  A    between atoms: _118  and  _120
REMARK   49  A    between atoms: _120  and  _121
REMARK   50  A    between atoms: _120  and  _123
REMARK   51  A    between atoms: _123  and  _124
REMARK   52  A    between atoms: _127  and  _129
REMARK   53  A    between atoms: _129  and  _130
REMARK   54  A    between atoms: _133  and  _135
REMARK   55  A    between atoms: _135  and  _136
REMARK   56  A    between atoms: _135  and  _138
REMARK   57  A    between atoms: _138  and  _139
REMARK   58  A    between atoms: _142  and  _143
REMARK   59  A    between atoms: _148  and  _150
REMARK   60  A    between atoms: _150  and  _151
REMARK   61  A    between atoms: _153  and  _155
REMARK   62  A    between atoms: _155  and  _156
REMARK   63  A    between atoms: _155  and  _158
REMARK   64  A    between atoms: _158  and  _159
REMARK   65  A    between atoms: _162  and  _164
REMARK   66  A    between atoms: _164  and  _165
REMARK   67  A    between atoms: _168  and  _170
REMARK   68  A    between atoms: _170  and  _171
REMARK   69  A    between atoms: _170  and  _173
REMARK   70  A    between atoms: _173  and  _174
REMARK   71  A    between atoms: _179  and  _181
REMARK   72  A    between atoms: _181  and  _182
REMARK   73  A    between atoms: _181  and  _184
REMARK   74  A    between atoms: _184  and  _185
REMARK   75  A    between atoms: _187  and  _189
REMARK   76  A    between atoms: _189  and  _190
REMARK   77  A    between atoms: _189  and  _192
REMARK   78  A    between atoms: _192  and  _193
REMARK   79  A    between atoms: _193  and  _194
REMARK   80  A    between atoms: _194  and  _195
REMARK   81  A    between atoms: _195  and  _196
REMARK   82  A    between atoms: _200  and  _202
REMARK   83  A    between atoms: _202  and  _203
REMARK   84  A    between atoms: _202  and  _205
REMARK   85  A    between atoms: _205  and  _206
REMARK   86  A    between atoms: _211  and  _213
REMARK   87  A    between atoms: _213  and  _214
REMARK   88  A    between atoms: _213  and  _216
REMARK   89  A    between atoms: _216  and  _217
REMARK   90  A    between atoms: _219  and  _221
REMARK   91  A    between atoms: _221  and  _222
REMARK   92  A    between atoms: _221  and  _224
REMARK   93  A    between atoms: _224  and  _225
REMARK   94  A    between atoms: _227  and  _229
REMARK   95  A    between atoms: _229  and  _230
REMARK   96  A    between atoms: _229  and  _232
REMARK   97  A    between atoms: _232  and  _233
REMARK   98  A    between atoms: _239  and  _241
REMARK   99  A    between atoms: _241  and  _242
REMARK  100  A    between atoms: _241  and  _244
REMARK  101  A    between atoms: _244  and  _245
REMARK  102  A    between atoms: _245  and  _246
REMARK  103  A    between atoms: _251  and  _253
REMARK  104  A    between atoms: _253  and  _254
REMARK  105  A    between atoms: _253  and  _256
REMARK  106  A    between atoms: _256  and  _257
REMARK  107  A    between atoms: _260  and  _262
REMARK  108  A    between atoms: _262  and  _263
REMARK  109  A    between atoms: _262  and  _265
REMARK  110  A    between atoms: _265  and  _266
REMARK  111  A    between atoms: _271  and  _273
REMARK  112  A    between atoms: _273  and  _274
REMARK  113  A    between atoms: _273  and  _276
REMARK  114  A    between atoms: _276  and  _277
REMARK  115  A    between atoms: _280  and  _282
REMARK  116  A    between atoms: _282  and  _283
REMARK  117  A    between atoms: _282  and  _285
REMARK  118  A    between atoms: _285  and  _286
REMARK  119  A    between atoms: _286  and  _287
REMARK  120  A    between atoms: _287  and  _288
REMARK  121  A    between atoms: _297  and  _299
REMARK  122  A    between atoms: _299  and  _300
REMARK  123  A    between atoms: _299  and  _306
REMARK  124  A    between atoms: _300  and  _301
REMARK  125  A    between atoms: _301  and  _302
REMARK  126  A    between atoms: _302  and  _303
REMARK  127  A    between atoms: _303  and  _304
REMARK  128  A    between atoms: _311  and  _313
REMARK  129  A    between atoms: _313  and  _314
REMARK  130  A    between atoms: _313  and  _316
REMARK  131  A    between atoms: _316  and  _317
REMARK  132  A    between atoms: _319  and  _321
REMARK  133  A    between atoms: _321  and  _322
REMARK  134  A    between atoms: _321  and  _324
REMARK  135  A    between atoms: _324  and  _325
REMARK  136  A    between atoms: _325  and  _326
REMARK  137  A    between atoms: _326  and  _327
REMARK  138  A    between atoms: _327  and  _328
REMARK  139  A    between atoms: _332  and  _334
REMARK  140  A    between atoms: _334  and  _335
REMARK  141  A    between atoms: _338  and  _340
REMARK  142  A    between atoms: _340  and  _341
REMARK  143  A    between atoms: _340  and  _343
REMARK  144  A    between atoms: _343  and  _344
REMARK  145  A    between atoms: _347  and  _349
REMARK  146  A    between atoms: _349  and  _350
REMARK  147  A    between atoms: _349  and  _352
REMARK  148  A    between atoms: _352  and  _353
REMARK  149  A    between atoms: _358  and  _360
REMARK  150  A    between atoms: _360  and  _361
REMARK  151  A    between atoms: _360  and  _363
REMARK  152  A    between atoms: _363  and  _364
REMARK  153  A    between atoms: _367  and  _369
REMARK  154  A    between atoms: _369  and  _370
REMARK  155  A    between atoms: _372  and  _374
REMARK  156  A    between atoms: _374  and  _375
REMARK  157  A    between atoms: _374  and  _377
REMARK  158  A    between atoms: _377  and  _378
REMARK  159  A    between atoms: _378  and  _379
REMARK  160  A    between atoms: _379  and  _380
REMARK  161  A    between atoms: _380  and  _381
REMARK  162  A    between atoms: _386  and  _387
REMARK  163  A    between atoms: _392  and  _394
REMARK  164  A    between atoms: _394  and  _395
REMARK  165  A    between atoms: _398  and  _400
REMARK  166  A    between atoms: _400  and  _401
REMARK  167  A    between atoms: _400  and  _403
REMARK  168  A    between atoms: _405  and  _407
REMARK  169  A    between atoms: _407  and  _408
REMARK  170  A    between atoms: _411  and  _413
REMARK  171  A    between atoms: _413  and  _414
REMARK  172  A    between atoms: _413  and  _416
REMARK  173  A    between atoms: _416  and  _417
REMARK  174  A    between atoms: _419  and  _421
REMARK  175  A    between atoms: _421  and  _422
REMARK  176  A    between atoms: _421  and  _424
REMARK  177  A    between atoms: _424  and  _425
REMARK  178  A    between atoms: _428  and  _430
REMARK  179  A    between atoms: _430  and  _431
REMARK  180  A    between atoms: _430  and  _433
REMARK  181  A    between atoms: _433  and  _434
REMARK  182  A    between atoms: _437  and  _439
REMARK  183  A    between atoms: _439  and  _440
REMARK  184  A    between atoms: _439  and  _442
REMARK  185  A    between atoms: _442  and  _443
REMARK  186  A    between atoms: _443  and  _444
REMARK  187  A    between atoms: _449  and  _451
REMARK  188  A    between atoms: _451  and  _452
REMARK  189  A    between atoms: _451  and  _454
REMARK  190  A    between atoms: _454  and  _455
REMARK  191  A    between atoms: _461  and  _463
REMARK  192  A    between atoms: _463  and  _464
REMARK  193  A    between atoms: _463  and  _466
REMARK  194  A    between atoms: _466  and  _467
REMARK  195  A    between atoms: _467  and  _468
REMARK  196  A    between atoms: _468  and  _469
REMARK  197  A    between atoms: _469  and  _470
REMARK  198  A    between atoms: _474  and  _476
REMARK  199  A    between atoms: _476  and  _477
REMARK  200  A    between atoms: _476  and  _479
REMARK  201  A    between atoms: _479  and  _480
REMARK  202  A    between atoms: _485  and  _487
REMARK  203  A    between atoms: _487  and  _488
REMARK  204  A    between atoms: _487  and  _490
REMARK  205  A    between atoms: _490  and  _491
REMARK  206  A    between atoms: _497  and  _499
REMARK  207  A    between atoms: _499  and  _500
REMARK  208  A    between atoms: _499  and  _502
REMARK  209  A    between atoms: _502  and  _503
REMARK  210  A    between atoms: _503  and  _504
REMARK  211  A    between atoms: _507  and  _509
REMARK  212  A    between atoms: _509  and  _510
REMARK  213  A    between atoms: _509  and  _512
REMARK  214  A    between atoms: _512  and  _513
REMARK  215  A    between atoms: _513  and  _514
REMARK  216  A    between atoms: _519  and  _521
REMARK  217  A    between atoms: _521  and  _522
REMARK  218  A    between atoms: _521  and  _524
REMARK  219  A    between atoms: _524  and  _525
REMARK  220  A    between atoms: _525  and  _526
REMARK  221  A    between atoms: _526  and  _527
REMARK  222  A    between atoms: _536  and  _538
REMARK  223  A    between atoms: _538  and  _539
REMARK                            x       y       z     vdW  Elec       q    Type
REMARK                         _______ _______ _______ _____ _____    ______ ____
ROOT
ATOM      1  C   PRO A   1      15.928  10.170  19.989  0.00  0.00    +0.242 C 
ATOM      2  O   PRO A   1      15.469  11.273  19.689  0.00  0.00    -0.273 OA
ATOM      3  N   PRO A   2      17.040   9.660  19.424  0.00  0.00    -0.273 N 
ATOM      4  CD  PRO A   2      17.781   8.465  19.865  0.00  0.00    +0.094 C 
ATOM      5  CG  PRO A   2      19.131   8.655  19.218  0.00  0.00    +0.024 C 
ATOM      6  CB  PRO A   2      18.826   9.338  17.928  0.00  0.00    +0.030 C 
ATOM      7  CA  PRO A   2      17.703  10.326  18.294  0.00  0.00    +0.140 C 
ENDROOT
BRANCH   1  12
ATOM      8  N   PRO A   1      14.441  10.228  21.928  0.00  0.00    -0.210 NA
ATOM      9  CD  PRO A   1      12.998  10.047  21.677  0.00  0.00    +0.089 C 
ATOM     10  CG  PRO A   1      12.966   9.192  20.449  0.00  0.00    +0.021 C 
ATOM     11  CB  PRO A   1      14.213   8.399  20.473  0.00  0.00    +0.028 C 
ATOM     12  CA  PRO A   1      15.249   9.347  21.076  0.00  0.00    +0.149 C 
ENDBRANCH   1  12
BRANCH   7  13
ATOM     13  C   PRO A   2      16.768  10.579  17.102  0.00  0.00    +0.227 C 
ATOM     14  O   PRO A   2      15.829   9.825  16.882  0.00  0.00    -0.286 OA
ENDBRANCH   7  13
TORSDOF 2
REMARK  Name = ../refined-set-2016/2jfh/2jfh_pocket.pdb
REMARK  223 active torsions:
REMARK  status: ('A' for Active; 'I' for Inactive)
REMARK    1  A    between atoms: _1  and  _3
REMARK    2  A    between atoms: _3  and  _4
REMARK    3  A    between atoms: _3  and  _6
REMARK    4  A    between atoms: _6  and  _7
REMARK    5  A    between atoms: _10  and  _12
REMARK    6  A    between atoms: _12  and  _13
REMARK    7  A    between atoms: _12  and  _15
REMARK    8  A    between atoms: _15  and  _16
REMARK    9  A    between atoms: _19  and  _21
REMARK   10  A    between atoms: _21  and  _22
REMARK   11  A    between atoms: _24  and  _26
REMARK   12  A    between atoms: _26  and  _27
REMARK   13  A    between atoms: _26  and  _29
REMARK   14  A    between atoms: _29  and  _30
REMARK   15  A    between atoms: _33  and  _35
REMARK   16  A    between atoms: _35  and  _36
REMARK   17  A    between atoms: _38  and  _40
REMARK   18  A    between atoms: _40  and  _41
REMARK   19  A    between atoms: _40  and  _43
REMARK   20  A    between atoms: _43  and  _44
REMARK   21  A    between atoms: _47  and  _49
REMARK   22  A    between atoms: _49  and  _50
REMARK   23  A    between atoms: _49  and  _52
REMARK   24  A    between atoms: _52  and  _53
REMARK   25  A    between atoms: _53  and  _54
REMARK   26  A    between atoms: _56  and  _58
REMARK   27  A    between atoms: _58  and  _59
REMARK   28  A    between atoms: _58  and  _61
REMARK   29  A    between atoms: _61  and  _62
REMARK   30  A    between atoms: _65  and  _67
REMARK   31  A    between atoms: _67  and  _68
REMARK   32  A    between atoms: _67  and  _70
REMARK   33  A    between atoms: _70  and  _71
REMARK   34  A    between atoms: _74  and  _76
REMARK   35  A    between atoms: _76  and  _77
REMARK   36  A    between atoms: _76  and  _79
REMARK   37  A    between atoms: _79  and  _80
REMARK   38  A    between atoms: _80  and  _81
REMARK   39  A    between atoms: _81  and  _82
REMARK   40  A    between atoms: _92  and  _93
REMARK   41  A    between atoms: _99  and  _100
REMARK   42  A    between atoms: _105  and  _107
REMARK   43  A    between atoms: _107  and  _108
REMARK   44  A    between atoms: _110  and  _112
REMARK   45  A    between atoms: _112  and  _113
REMARK   46  A    between atoms: _112  and  _115
REMARK   47  A    between atoms: _115  and  _116
REMARK   48  A    between atoms: _118  and  _120
REMARK   49  A    between atoms: _120  and  _121
REMARK   50  A    between atoms: _120  and  _123
REMARK   51  A    between atoms: _123  and  _124
REMARK   52  A    between atoms: _127  and  _129
REMARK   53  A    between atoms: _129  and  _130
REMARK   54  A    between atoms: _133  and  _135
REMARK   55  A    between atoms: _135  and  _136
REMARK   56  A    between atoms: _135  and  _138
REMARK   57  A    between atoms: _138  and  _139
REMARK   58  A    between atoms: _142  and  _143
REMARK   59  A    between atoms: _148  and  _150
REMARK   60  A    between atoms: _150  and  _151
REMARK   61  A    between atoms: _153  and  _155
REMARK   62  A    between atoms: _155  and  _156
REMARK   63  A    between atoms: _155  and  _158
REMARK   64  A    between atoms: _158  and  _159
REMARK   65  A    between atoms: _162  and  _164
REMARK   66  A    between atoms: _164  and  _165
REMARK   67  A    between atoms: _168  and  _170
REMARK   68  A    between atoms: _170  and  _171
REMARK   69  A    between atoms: _170  and  _173
REMARK   70  A    between atoms: _173  and  _174
REMARK   71  A    between atoms: _179  and  _181
REMARK   72  A    between atoms: _181  and  _182
REMARK   73  A    between atoms: _181  and  _184
REMARK   74  A    between atoms: _184  and  _185
REMARK   75  A    between atoms: _187  and  _189
REMARK   76  A    between atoms: _189  and  _190
REMARK   77  A    between atoms: _189  and  _192
REMARK   78  A    between atoms: _192  and  _193
REMARK   79  A    between atoms: _193  and  _194
REMARK   80  A    between atoms: _194  and  _195
REMARK   81  A    between atoms: _195  and  _196
REMARK   82  A    between atoms: _200  and  _202
REMARK   83  A    between atoms: _202  and  _203
REMARK   84  A    between atoms: _202  and  _205
REMARK   85  A    between atoms: _205  and  _206
REMARK   86  A    between atoms: _211  and  _213
REMARK   87  A    between atoms: _213  and  _214
REMARK   88  A    between atoms: _213  and  _216
REMARK   89  A    between atoms: _216  and  _217
REMARK   90  A    between atoms: _219  and  _221
REMARK   91  A    between atoms: _221  and  _222
REMARK   92  A    between atoms: _221  and  _224
REMARK   93  A    between atoms: _224  and  _225
REMARK   94  A    between atoms: _227  and  _229
REMARK   95  A    between atoms: _229  and  _230
REMARK   96  A    between atoms: _229  and  _232
REMARK   97  A    between atoms: _232  and  _233
REMARK   98  A    between atoms: _239  and  _241
REMARK   99  A    between atoms: _241  and  _242
REMARK  100  A    between atoms: _241  and  _244
REMARK  101  A    between atoms: _244  and  _245
REMARK  102  A    between atoms: _245  and  _246
REMARK  103  A    between atoms: _251  and  _253
REMARK  104  A    between atoms: _253  and  _254
REMARK  105  A    between atoms: _253  and  _256
REMARK  106  A    between atoms: _256  and  _257
REMARK  107  A    between atoms: _260  and  _262
REMARK  108  A    between atoms: _262  and  _263
REMARK  109  A    between atoms: _262  and  _265
REMARK  110  A    between atoms: _265  and  _266
REMARK  111  A    between atoms: _271  and  _273
REMARK  112  A    between atoms: _273  and  _274
REMARK  113  A    between atoms: _273  and  _276
REMARK  114  A    between atoms: _276  and  _277
REMARK  115  A    between atoms: _280  and  _282
REMARK  116  A    between atoms: _282  and  _283
REMARK  117  A    between atoms: _282  and  _285
REMARK  118  A    between atoms: _285  and  _286
REMARK  119  A    between atoms: _286  and  _287
REMARK  120  A    between atoms: _287  and  _288
REMARK  121  A    between atoms: _297  and  _299
REMARK  122  A    between atoms: _299  and  _300
REMARK  123  A    between atoms: _299  and  _306
REMARK  124  A    between atoms: _300  and  _301
REMARK  125  A    between atoms: _301  and  _302
REMARK  126  A    between atoms: _302  and  _303
REMARK  127  A    between atoms: _303  and  _304
REMARK  128  A    between atoms: _311  and  _313
REMARK  129  A    between atoms: _313  and  _314
REMARK  130  A    between atoms: _313  and  _316
REMARK  131  A    between atoms: _316  and  _317
REMARK  132  A    between atoms: _319  and  _321
REMARK  133  A    between atoms: _321  and  _322
REMARK  134  A    between atoms: _321  and  _324
REMARK  135  A    between atoms: _324  and  _325
REMARK  136  A    between atoms: _325  and  _326
REMARK  137  A    between atoms: _326  and  _327
REMARK  138  A    between atoms: _327  and  _328
REMARK  139  A    between atoms: _332  and  _334
REMARK  140  A    between atoms: _334  and  _335
REMARK  141  A    between atoms: _338  and  _340
REMARK  142  A    between atoms: _340  and  _341
REMARK  143  A    between atoms: _340  and  _343
REMARK  144  A    between atoms: _343  and  _344
REMARK  145  A    between atoms: _347  and  _349
REMARK  146  A    between atoms: _349  and  _350
REMARK  147  A    between atoms: _349  and  _352
REMARK  148  A    between atoms: _352  and  _353
REMARK  149  A    between atoms: _358  and  _360
REMARK  150  A    between atoms: _360  and  _361
REMARK  151  A    between atoms: _360  and  _363
REMARK  152  A    between atoms: _363  and  _364
REMARK  153  A    between atoms: _367  and  _369
REMARK  154  A    between atoms: _369  and  _370
REMARK  155  A    between atoms: _372  and  _374
REMARK  156  A    between atoms: _374  and  _375
REMARK  157  A    between atoms: _374  and  _377
REMARK  158  A    between atoms: _377  and  _378
REMARK  159  A    between atoms: _378  and  _379
REMARK  160  A    between atoms: _379  and  _380
REMARK  161  A    between atoms: _380  and  _381
REMARK  162  A    between atoms: _386  and  _387
REMARK  163  A    between atoms: _392  and  _394
REMARK  164  A    between atoms: _394  and  _395
REMARK  165  A    between atoms: _398  and  _400
REMARK  166  A    between atoms: _400  and  _401
REMARK  167  A    between atoms: _400  and  _403
REMARK  168  A    between atoms: _405  and  _407
REMARK  169  A    between atoms: _407  and  _408
REMARK  170  A    between atoms: _411  and  _413
REMARK  171  A    between atoms: _413  and  _414
REMARK  172  A    between atoms: _413  and  _416
REMARK  173  A    between atoms: _416  and  _417
REMARK  174  A    between atoms: _419  and  _421
REMARK  175  A    between atoms: _421  and  _422
REMARK  176  A    between atoms: _421  and  _424
REMARK  177  A    between atoms: _424  and  _425
REMARK  178  A    between atoms: _428  and  _430
REMARK  179  A    between atoms: _430  and  _431
REMARK  180  A    between atoms: _430  and  _433
REMARK  181  A    between atoms: _433  and  _434
REMARK  182  A    between atoms: _437  and  _439
REMARK  183  A    between atoms: _439  and  _440
REMARK  184  A    between atoms: _439  and  _442
REMARK  185  A    between atoms: _442  and  _443
REMARK  186  A    between atoms: _443  and  _444
REMARK  187  A    between atoms: _449  and  _451
REMARK  188  A    between atoms: _451  and  _452
REMARK  189  A    between atoms: _451  and  _454
REMARK  190  A    between atoms: _454  and  _455
REMARK  191  A    between atoms: _461  and  _463
REMARK  192  A    between atoms: _463  and  _464
REMARK  193  A    between atoms: _463  and  _466
REMARK  194  A    between atoms: _466  and  _467
REMARK  195  A    between atoms: _467  and  _468
REMARK  196  A    between atoms: _468  and  _469
REMARK  197  A    between atoms: _469  and  _470
REMARK  198  A    between atoms: _474  and  _476
REMARK  199  A    between atoms: _476  and  _477
REMARK  200  A    between atoms: _476  and  _479
REMARK  201  A    between atoms: _479  and  _480
REMARK  202  A    between atoms: _485  and  _487
REMARK  203  A    between atoms: _487  and  _488
REMARK  204  A    between atoms: _487  and  _490
REMARK  205  A    between atoms: _490  and  _491
REMARK  206  A    between atoms: _497  and  _499
REMARK  207  A    between atoms: _499  and  _500
REMARK  208  A    between atoms: _499  and  _502
REMARK  209  A    between atoms: _502  and  _503
REMARK  210  A    between atoms: _503  and  _504
REMARK  211  A    between atoms: _507  and  _509
REMARK  212  A    between atoms: _509  and  _510
REMARK  213  A    between atoms: _509  and  _512
REMARK  214  A    between atoms: _512  and  _513
REMARK  215  A    between atoms: _513  and  _514
REMARK  216  A    between atoms: _519  and  _521
REMARK  217  A    between atoms: _521  and  _522
REMARK  218  A    between atoms: _521  and  _524
REMARK  219  A    between atoms: _524  and  _525
REMARK  220  A    between atoms: _525  and  _526
REMARK  221  A    between atoms: _526  and  _527
REMARK  222  A    between atoms: _536  and  _538
REMARK  223  A    between atoms: _538  and  _539
REMARK                            x       y       z     vdW  Elec       q    Type
REMARK                         _______ _______ _______ _____ _____    ______ ____
ROOT
ATOM      1  CA  SER A   2       6.932   4.246  26.700  0.00  0.00    +0.178 C 
ENDROOT
BRANCH   1   4
ATOM      2  C   GLY A   1       8.415   6.082  27.366  0.00  0.00    +0.240 C 
ATOM      3  O   GLY A   1       8.506   5.663  28.527  0.00  0.00    -0.274 OA
ATOM      4  N   SER A   2       7.671   5.476  26.444  0.00  0.00    -0.295 N 
ATOM      5  H   SER A   2       7.614   5.900  25.496  0.00  0.00    +0.150 HD
BRANCH   2   6
ATOM      6  CA  GLY A   1       9.095   7.368  26.950  0.00  0.00    +0.169 C 
BRANCH   6   7
ATOM      7  N   GLY A   1       8.923   7.816  25.559  0.00  0.00    -0.236 NA
ATOM      8  H   GLY A   1       9.670   7.601  24.868  0.00  0.00    +0.142 HD
ENDBRANCH   6   7
ENDBRANCH   2   6
ENDBRANCH   1   4
BRANCH   1   9
ATOM      9  C   SER A   2       6.267   3.861  25.381  0.00  0.00    +0.243 C 
ATOM     10  N   LEU A   3       5.769   2.634  25.333  0.00  0.00    -0.298 N 
ATOM     11  H   LEU A   3       6.018   1.971  26.094  0.00  0.00    +0.150 HD
ATOM     12  O   SER A   2       6.256   4.647  24.431  0.00  0.00    -0.273 OA
BRANCH  10  13
ATOM     13  CA  LEU A   3       4.888   2.164  24.266  0.00  0.00    +0.137 C 
BRANCH  13  14
ATOM     14  C   LEU A   3       3.434   2.571  24.508  0.00  0.00    +0.227 C 
ATOM     15  O   LEU A   3       2.941   2.527  25.639  0.00  0.00    -0.286 OA
ENDBRANCH  13  14
BRANCH  13  16
ATOM     16  CB  LEU A   3       5.029   0.637  24.070  0.00  0.00    +0.028 C 
BRANCH  16  17
ATOM     17  CG  LEU A   3       6.411   0.089  23.644  0.00  0.00    +0.002 C 
ATOM     18  CD2 LEU A   3       6.322  -1.427  23.205  0.00  0.00    +0.000 C 
ATOM     19  CD1 LEU A   3       6.942   0.914  22.495  0.00  0.00    +0.000 C 
ENDBRANCH  16  17
ENDBRANCH  13  16
ENDBRANCH  10  13
ENDBRANCH   1   9
BRANCH   1  20
ATOM     20  CB  SER A   2       5.865   4.398  27.823  0.00  0.00    +0.166 C 
BRANCH  20  21
ATOM     21  OG  SER A   2       4.788   5.238  27.438  0.00  0.00    -0.380 OA
ATOM     22  H   SER A   2       4.139   5.303  28.183  0.00  0.00    +0.211 HD
ENDBRANCH  20  21
ENDBRANCH   1  20
TORSDOF 10
REMARK  Name = ../refined-set-2016/2jfh/2jfh_pocket.pdb
REMARK  223 active torsions:
REMARK  status: ('A' for Active; 'I' for Inactive)
REMARK    1  A    between atoms: _1  and  _3
REMARK    2  A    between atoms: _3  and  _4
REMARK    3  A    between atoms: _3  and  _6
REMARK    4  A    between atoms: _6  and  _7
REMARK    5  A    between atoms: _10  and  _12
REMARK    6  A    between atoms: _12  and  _13
REMARK    7  A    between atoms: _12  and  _15
REMARK    8  A    between atoms: _15  and  _16
REMARK    9  A    between atoms: _19  and  _21
REMARK   10  A    between atoms: _21  and  _22
REMARK   11  A    between atoms: _24  and  _26
REMARK   12  A    between atoms: _26  and  _27
REMARK   13  A    between atoms: _26  and  _29
REMARK   14  A    between atoms: _29  and  _30
REMARK   15  A    between atoms: _33  and  _35
REMARK   16  A    between atoms: _35  and  _36
REMARK   17  A    between atoms: _38  and  _40
REMARK   18  A    between atoms: _40  and  _41
REMARK   19  A    between atoms: _40  and  _43
REMARK   20  A    between atoms: _43  and  _44
REMARK   21  A    between atoms: _47  and  _49
REMARK   22  A    between atoms: _49  and  _50
REMARK   23  A    between atoms: _49  and  _52
REMARK   24  A    between atoms: _52  and  _53
REMARK   25  A    between atoms: _53  and  _54
REMARK   26  A    between atoms: _56  and  _58
REMARK   27  A    between atoms: _58  and  _59
REMARK   28  A    between atoms: _58  and  _61
REMARK   29  A    between atoms: _61  and  _62
REMARK   30  A    between atoms: _65  and  _67
REMARK   31  A    between atoms: _67  and  _68
REMARK   32  A    between atoms: _67  and  _70
REMARK   33  A    between atoms: _70  and  _71
REMARK   34  A    between atoms: _74  and  _76
REMARK   35  A    between atoms: _76  and  _77
REMARK   36  A    between atoms: _76  and  _79
REMARK   37  A    between atoms: _79  and  _80
REMARK   38  A    between atoms: _80  and  _81
REMARK   39  A    between atoms: _81  and  _82
REMARK   40  A    between atoms: _92  and  _93
REMARK   41  A    between atoms: _99  and  _100
REMARK   42  A    between atoms: _105  and  _107
REMARK   43  A    between atoms: _107  and  _108
REMARK   44  A    between atoms: _110  and  _112
REMARK   45  A    between atoms: _112  and  _113
REMARK   46  A    between atoms: _112  and  _115
REMARK   47  A    between atoms: _115  and  _116
REMARK   48  A    between atoms: _118  and  _120
REMARK   49  A    between atoms: _120  and  _121
REMARK   50  A    between atoms: _120  and  _123
REMARK   51  A    between atoms: _123  and  _124
REMARK   52  A    between atoms: _127  and  _129
REMARK   53  A    between atoms: _129  and  _130
REMARK   54  A    between atoms: _133  and  _135
REMARK   55  A    between atoms: _135  and  _136
REMARK   56  A    between atoms: _135  and  _138
REMARK   57  A    between atoms: _138  and  _139
REMARK   58  A    between atoms: _142  and  _143
REMARK   59  A    between atoms: _148  and  _150
REMARK   60  A    between atoms: _150  and  _151
REMARK   61  A    between atoms: _153  and  _155
REMARK   62  A    between atoms: _155  and  _156
REMARK   63  A    between atoms: _155  and  _158
REMARK   64  A    between atoms: _158  and  _159
REMARK   65  A    between atoms: _162  and  _164
REMARK   66  A    between atoms: _164  and  _165
REMARK   67  A    between atoms: _168  and  _170
REMARK   68  A    between atoms: _170  and  _171
REMARK   69  A    between atoms: _170  and  _173
REMARK   70  A    between atoms: _173  and  _174
REMARK   71  A    between atoms: _179  and  _181
REMARK   72  A    between atoms: _181  and  _182
REMARK   73  A    between atoms: _181  and  _184
REMARK   74  A    between atoms: _184  and  _185
REMARK   75  A    between atoms: _187  and  _189
REMARK   76  A    between atoms: _189  and  _190
REMARK   77  A    between atoms: _189  and  _192
REMARK   78  A    between atoms: _192  and  _193
REMARK   79  A    between atoms: _193  and  _194
REMARK   80  A    between atoms: _194  and  _195
REMARK   81  A    between atoms: _195  and  _196
REMARK   82  A    between atoms: _200  and  _202
REMARK   83  A    between atoms: _202  and  _203
REMARK   84  A    between atoms: _202  and  _205
REMARK   85  A    between atoms: _205  and  _206
REMARK   86  A    between atoms: _211  and  _213
REMARK   87  A    between atoms: _213  and  _214
REMARK   88  A    between atoms: _213  and  _216
REMARK   89  A    between atoms: _216  and  _217
REMARK   90  A    between atoms: _219  and  _221
REMARK   91  A    between atoms: _221  and  _222
REMARK   92  A    between atoms: _221  and  _224
REMARK   93  A    between atoms: _224  and  _225
REMARK   94  A    between atoms: _227  and  _229
REMARK   95  A    between atoms: _229  and  _230
REMARK   96  A    between atoms: _229  and  _232
REMARK   97  A    between atoms: _232  and  _233
REMARK   98  A    between atoms: _239  and  _241
REMARK   99  A    between atoms: _241  and  _242
REMARK  100  A    between atoms: _241  and  _244
REMARK  101  A    between atoms: _244  and  _245
REMARK  102  A    between atoms: _245  and  _246
REMARK  103  A    between atoms: _251  and  _253
REMARK  104  A    between atoms: _253  and  _254
REMARK  105  A    between atoms: _253  and  _256
REMARK  106  A    between atoms: _256  and  _257
REMARK  107  A    between atoms: _260  and  _262
REMARK  108  A    between atoms: _262  and  _263
REMARK  109  A    between atoms: _262  and  _265
REMARK  110  A    between atoms: _265  and  _266
REMARK  111  A    between atoms: _271  and  _273
REMARK  112  A    between atoms: _273  and  _274
REMARK  113  A    between atoms: _273  and  _276
REMARK  114  A    between atoms: _276  and  _277
REMARK  115  A    between atoms: _280  and  _282
REMARK  116  A    between atoms: _282  and  _283
REMARK  117  A    between atoms: _282  and  _285
REMARK  118  A    between atoms: _285  and  _286
REMARK  119  A    between atoms: _286  and  _287
REMARK  120  A    between atoms: _287  and  _288
REMARK  121  A    between atoms: _297  and  _299
REMARK  122  A    between atoms: _299  and  _300
REMARK  123  A    between atoms: _299  and  _306
REMARK  124  A    between atoms: _300  and  _301
REMARK  125  A    between atoms: _301  and  _302
REMARK  126  A    between atoms: _302  and  _303
REMARK  127  A    between atoms: _303  and  _304
REMARK  128  A    between atoms: _311  and  _313
REMARK  129  A    between atoms: _313  and  _314
REMARK  130  A    between atoms: _313  and  _316
REMARK  131  A    between atoms: _316  and  _317
REMARK  132  A    between atoms: _319  and  _321
REMARK  133  A    between atoms: _321  and  _322
REMARK  134  A    between atoms: _321  and  _324
REMARK  135  A    between atoms: _324  and  _325
REMARK  136  A    between atoms: _325  and  _326
REMARK  137  A    between atoms: _326  and  _327
REMARK  138  A    between atoms: _327  and  _328
REMARK  139  A    between atoms: _332  and  _334
REMARK  140  A    between atoms: _334  and  _335
REMARK  141  A    between atoms: _338  and  _340
REMARK  142  A    between atoms: _340  and  _341
REMARK  143  A    between atoms: _340  and  _343
REMARK  144  A    between atoms: _343  and  _344
REMARK  145  A    between atoms: _347  and  _349
REMARK  146  A    between atoms: _349  and  _350
REMARK  147  A    between atoms: _349  and  _352
REMARK  148  A    between atoms: _352  and  _353
REMARK  149  A    between atoms: _358  and  _360
REMARK  150  A    between atoms: _360  and  _361
REMARK  151  A    between atoms: _360  and  _363
REMARK  152  A    between atoms: _363  and  _364
REMARK  153  A    between atoms: _367  and  _369
REMARK  154  A    between atoms: _369  and  _370
REMARK  155  A    between atoms: _372  and  _374
REMARK  156  A    between atoms: _374  and  _375
REMARK  157  A    between atoms: _374  and  _377
REMARK  158  A    between atoms: _377  and  _378
REMARK  159  A    between atoms: _378  and  _379
REMARK  160  A    between atoms: _379  and  _380
REMARK  161  A    between atoms: _380  and  _381
REMARK  162  A    between atoms: _386  and  _387
REMARK  163  A    between atoms: _392  and  _394
REMARK  164  A    between atoms: _394  and  _395
REMARK  165  A    between atoms: _398  and  _400
REMARK  166  A    between atoms: _400  and  _401
REMARK  167  A    between atoms: _400  and  _403
REMARK  168  A    between atoms: _405  and  _407
REMARK  169  A    between atoms: _407  and  _408
REMARK  170  A    between atoms: _411  and  _413
REMARK  171  A    between atoms: _413  and  _414
REMARK  172  A    between atoms: _413  and  _416
REMARK  173  A    between atoms: _416  and  _417
REMARK  174  A    between atoms: _419  and  _421
REMARK  175  A    between atoms: _421  and  _422
REMARK  176  A    between atoms: _421  and  _424
REMARK  177  A    between atoms: _424  and  _425
REMARK  178  A    between atoms: _428  and  _430
REMARK  179  A    between atoms: _430  and  _431
REMARK  180  A    between atoms: _430  and  _433
REMARK  181  A    between atoms: _433  and  _434
REMARK  182  A    between atoms: _437  and  _439
REMARK  183  A    between atoms: _439  and  _440
REMARK  184  A    between atoms: _439  and  _442
REMARK  185  A    between atoms: _442  and  _443
REMARK  186  A    between atoms: _443  and  _444
REMARK  187  A    between atoms: _449  and  _451
REMARK  188  A    between atoms: _451  and  _452
REMARK  189  A    between atoms: _451  and  _454
REMARK  190  A    between atoms: _454  and  _455
REMARK  191  A    between atoms: _461  and  _463
REMARK  192  A    between atoms: _463  and  _464
REMARK  193  A    between atoms: _463  and  _466
REMARK  194  A    between atoms: _466  and  _467
REMARK  195  A    between atoms: _467  and  _468
REMARK  196  A    between atoms: _468  and  _469
REMARK  197  A    between atoms: _469  and  _470
REMARK  198  A    between atoms: _474  and  _476
REMARK  199  A    between atoms: _476  and  _477
REMARK  200  A    between atoms: _476  and  _479
REMARK  201  A    between atoms: _479  and  _480
REMARK  202  A    between atoms: _485  and  _487
REMARK  203  A    between atoms: _487  and  _488
REMARK  204  A    between atoms: _487  and  _490
REMARK  205  A    between atoms: _490  and  _491
REMARK  206  A    between atoms: _497  and  _499
REMARK  207  A    between atoms: _499  and  _500
REMARK  208  A    between atoms: _499  and  _502
REMARK  209  A    between atoms: _502  and  _503
REMARK  210  A    between atoms: _503  and  _504
REMARK  211  A    between atoms: _507  and  _509
REMARK  212  A    between atoms: _509  and  _510
REMARK  213  A    between atoms: _509  and  _512
REMARK  214  A    between atoms: _512  and  _513
REMARK  215  A    between atoms: _513  and  _514
REMARK  216  A    between atoms: _519  and  _521
REMARK  217  A    between atoms: _521  and  _522
REMARK  218  A    between atoms: _521  and  _524
REMARK  219  A    between atoms: _524  and  _525
REMARK  220  A    between atoms: _525  and  _526
REMARK  221  A    between atoms: _526  and  _527
REMARK  222  A    between atoms: _536  and  _538
REMARK  223  A    between atoms: _538  and  _539
REMARK                            x       y       z     vdW  Elec       q    Type
REMARK                         _______ _______ _______ _____ _____    ______ ____
ROOT
ATOM      1  C   PRO A   3      15.430  -4.313  17.034  0.00  0.00    +0.241 C 
ATOM      2  O   PRO A   3      15.599  -5.309  17.684  0.00  0.00    -0.273 OA
ATOM      3  N   GLY A   4      15.488  -3.082  17.524  0.00  0.00    -0.295 N 
ATOM      4  H   GLY A   4      15.330  -2.287  16.872  0.00  0.00    +0.150 HD
ENDROOT
BRANCH   1   8
ATOM      5  C   SER A   2      13.253  -2.876  15.555  0.00  0.00    +0.246 C 
ATOM      6  O   SER A   2      12.645  -3.460  16.417  0.00  0.00    -0.273 OA
ATOM      7  N   PRO A   3      14.394  -3.313  15.016  0.00  0.00    -0.272 N 
ATOM      8  CA  PRO A   3      15.108  -4.464  15.561  0.00  0.00    +0.152 C 
ATOM      9  CB  PRO A   3      16.385  -4.544  14.725  0.00  0.00    +0.031 C 
ATOM     10  CG  PRO A   3      16.547  -3.276  14.080  0.00  0.00    +0.024 C 
ATOM     11  CD  PRO A   3      15.233  -2.558  14.077  0.00  0.00    +0.094 C 
BRANCH   5  12
ATOM     12  CA  SER A   2      12.716  -1.560  15.023  0.00  0.00    +0.178 C 
BRANCH  12  14
ATOM     13  C   ALA A   1      10.606  -2.552  14.415  0.00  0.00    +0.238 C 
ATOM     14  N   SER A   2      11.267  -1.589  15.040  0.00  0.00    -0.295 N 
ATOM     15  H   SER A   2      10.742  -0.848  15.547  0.00  0.00    +0.150 HD
ATOM     16  O   ALA A   1      11.147  -3.344  13.682  0.00  0.00    -0.274 OA
BRANCH  13  17
ATOM     17  CA  ALA A   1       9.111  -2.643  14.678  0.00  0.00    +0.145 C 
ATOM     18  CB  ALA A   1       8.776  -3.932  15.377  0.00  0.00    +0.028 C 
BRANCH  17  19
ATOM     19  N   ALA A   1       8.341  -2.528  13.462  0.00  0.00    -0.238 NA
ATOM     20  H   ALA A   1       8.228  -3.377  12.871  0.00  0.00    +0.142 HD
ENDBRANCH  17  19
ENDBRANCH  13  17
ENDBRANCH  12  14
BRANCH  12  21
ATOM     21  CB  SER A   2      13.266  -0.409  15.858  0.00  0.00    +0.166 C 
BRANCH  21  22
ATOM     22  OG  SER A   2      14.547  -0.690  16.363  0.00  0.00    -0.380 OA
ATOM     23  H   SER A   2      14.866   0.080  16.897  0.00  0.00    +0.211 HD
ENDBRANCH  21  22
ENDBRANCH  12  21
ENDBRANCH   5  12
ENDBRANCH   1   8
BRANCH   3  24
ATOM     24  CA  GLY A   4      15.760  -2.778  18.925  0.00  0.00    +0.176 C 
BRANCH  24  25
ATOM     25  C   GLY A   4      14.632  -3.094  19.908  0.00  0.00    +0.243 C 
ATOM     26  O   GLY A   4      14.857  -3.050  21.127  0.00  0.00    -0.273 OA
ATOM     27  N   ILE A   5      13.417  -3.372  19.409  0.00  0.00    -0.297 N 
ATOM     28  H   ILE A   5      13.236  -3.284  18.389  0.00  0.00    +0.150 HD
BRANCH  27  29
ATOM     29  CA  ILE A   5      12.337  -3.805  20.324  0.00  0.00    +0.149 C 
BRANCH  29  30
ATOM     30  C   ILE A   5      12.057  -5.309  20.193  0.00  0.00    +0.241 C 
ATOM     31  N   ALA A   6      11.847  -5.994  21.303  0.00  0.00    -0.298 N 
ATOM     32  H   ALA A   6      11.884  -5.507  22.221  0.00  0.00    +0.150 HD
ATOM     33  O   ILE A   5      12.007  -5.829  19.085  0.00  0.00    -0.273 OA
BRANCH  31  34
ATOM     34  CA  ALA A   6      11.566  -7.416  21.259  0.00  0.00    +0.137 C 
ATOM     35  CB  ALA A   6      11.844  -8.063  22.614  0.00  0.00    +0.030 C 
BRANCH  34  36
ATOM     36  C   ALA A   6      10.137  -7.734  20.797  0.00  0.00    +0.227 C 
ATOM     37  O   ALA A   6       9.192  -7.177  21.306  0.00  0.00    -0.286 OA
ENDBRANCH  34  36
ENDBRANCH  31  34
ENDBRANCH  29  30
BRANCH  29  38
ATOM     38  CB  ILE A   5      11.028  -2.972  20.185  0.00  0.00    +0.027 C 
ATOM     39  CG2 ILE A   5      10.296  -3.245  18.814  0.00  0.00    +0.002 C 
BRANCH  38  40
ATOM     40  CG1 ILE A   5      10.103  -3.240  21.381  0.00  0.00    +0.002 C 
ATOM     41  CD1 ILE A   5       8.801  -2.541  21.254  0.00  0.00    +0.000 C 
ENDBRANCH  38  40
ENDBRANCH  29  38
ENDBRANCH  27  29
ENDBRANCH  24  25
ENDBRANCH   3  24
TORSDOF 15
REMARK  Name = ../refined-set-2016/2jfh/2jfh_pocket.pdb
REMARK  223 active torsions:
REMARK  status: ('A' for Active; 'I' for Inactive)
REMARK    1  A    between atoms: _1  and  _3
REMARK    2  A    between atoms: _3  and  _4
REMARK    3  A    between atoms: _3  and  _6
REMARK    4  A    between atoms: _6  and  _7
REMARK    5  A    between atoms: _10  and  _12
REMARK    6  A    between atoms: _12  and  _13
REMARK    7  A    between atoms: _12  and  _15
REMARK    8  A    between atoms: _15  and  _16
REMARK    9  A    between atoms: _19  and  _21
REMARK   10  A    between atoms: _21  and  _22
REMARK   11  A    between atoms: _24  and  _26
REMARK   12  A    between atoms: _26  and  _27
REMARK   13  A    between atoms: _26  and  _29
REMARK   14  A    between atoms: _29  and  _30
REMARK   15  A    between atoms: _33  and  _35
REMARK   16  A    between atoms: _35  and  _36
REMARK   17  A    between atoms: _38  and  _40
REMARK   18  A    between atoms: _40  and  _41
REMARK   19  A    between atoms: _40  and  _43
REMARK   20  A    between atoms: _43  and  _44
REMARK   21  A    between atoms: _47  and  _49
REMARK   22  A    between atoms: _49  and  _50
REMARK   23  A    between atoms: _49  and  _52
REMARK   24  A    between atoms: _52  and  _53
REMARK   25  A    between atoms: _53  and  _54
REMARK   26  A    between atoms: _56  and  _58
REMARK   27  A    between atoms: _58  and  _59
REMARK   28  A    between atoms: _58  and  _61
REMARK   29  A    between atoms: _61  and  _62
REMARK   30  A    between atoms: _65  and  _67
REMARK   31  A    between atoms: _67  and  _68
REMARK   32  A    between atoms: _67  and  _70
REMARK   33  A    between atoms: _70  and  _71
REMARK   34  A    between atoms: _74  and  _76
REMARK   35  A    between atoms: _76  and  _77
REMARK   36  A    between atoms: _76  and  _79
REMARK   37  A    between atoms: _79  and  _80
REMARK   38  A    between atoms: _80  and  _81
REMARK   39  A    between atoms: _81  and  _82
REMARK   40  A    between atoms: _92  and  _93
REMARK   41  A    between atoms: _99  and  _100
REMARK   42  A    between atoms: _105  and  _107
REMARK   43  A    between atoms: _107  and  _108
REMARK   44  A    between atoms: _110  and  _112
REMARK   45  A    between atoms: _112  and  _113
REMARK   46  A    between atoms: _112  and  _115
REMARK   47  A    between atoms: _115  and  _116
REMARK   48  A    between atoms: _118  and  _120
REMARK   49  A    between atoms: _120  and  _121
REMARK   50  A    between atoms: _120  and  _123
REMARK   51  A    between atoms: _123  and  _124
REMARK   52  A    between atoms: _127  and  _129
REMARK   53  A    between atoms: _129  and  _130
REMARK   54  A    between atoms: _133  and  _135
REMARK   55  A    between atoms: _135  and  _136
REMARK   56  A    between atoms: _135  and  _138
REMARK   57  A    between atoms: _138  and  _139
REMARK   58  A    between atoms: _142  and  _143
REMARK   59  A    between atoms: _148  and  _150
REMARK   60  A    between atoms: _150  and  _151
REMARK   61  A    between atoms: _153  and  _155
REMARK   62  A    between atoms: _155  and  _156
REMARK   63  A    between atoms: _155  and  _158
REMARK   64  A    between atoms: _158  and  _159
REMARK   65  A    between atoms: _162  and  _164
REMARK   66  A    between atoms: _164  and  _165
REMARK   67  A    between atoms: _168  and  _170
REMARK   68  A    between atoms: _170  and  _171
REMARK   69  A    between atoms: _170  and  _173
REMARK   70  A    between atoms: _173  and  _174
REMARK   71  A    between atoms: _179  and  _181
REMARK   72  A    between atoms: _181  and  _182
REMARK   73  A    between atoms: _181  and  _184
REMARK   74  A    between atoms: _184  and  _185
REMARK   75  A    between atoms: _187  and  _189
REMARK   76  A    between atoms: _189  and  _190
REMARK   77  A    between atoms: _189  and  _192
REMARK   78  A    between atoms: _192  and  _193
REMARK   79  A    between atoms: _193  and  _194
REMARK   80  A    between atoms: _194  and  _195
REMARK   81  A    between atoms: _195  and  _196
REMARK   82  A    between atoms: _200  and  _202
REMARK   83  A    between atoms: _202  and  _203
REMARK   84  A    between atoms: _202  and  _205
REMARK   85  A    between atoms: _205  and  _206
REMARK   86  A    between atoms: _211  and  _213
REMARK   87  A    between atoms: _213  and  _214
REMARK   88  A    between atoms: _213  and  _216
REMARK   89  A    between atoms: _216  and  _217
REMARK   90  A    between atoms: _219  and  _221
REMARK   91  A    between atoms: _221  and  _222
REMARK   92  A    between atoms: _221  and  _224
REMARK   93  A    between atoms: _224  and  _225
REMARK   94  A    between atoms: _227  and  _229
REMARK   95  A    between atoms: _229  and  _230
REMARK   96  A    between atoms: _229  and  _232
REMARK   97  A    between atoms: _232  and  _233
REMARK   98  A    between atoms: _239  and  _241
REMARK   99  A    between atoms: _241  and  _242
REMARK  100  A    between atoms: _241  and  _244
REMARK  101  A    between atoms: _244  and  _245
REMARK  102  A    between atoms: _245  and  _246
REMARK  103  A    between atoms: _251  and  _253
REMARK  104  A    between atoms: _253  and  _254
REMARK  105  A    between atoms: _253  and  _256
REMARK  106  A    between atoms: _256  and  _257
REMARK  107  A    between atoms: _260  and  _262
REMARK  108  A    between atoms: _262  and  _263
REMARK  109  A    between atoms: _262  and  _265
REMARK  110  A    between atoms: _265  and  _266
REMARK  111  A    between atoms: _271  and  _273
REMARK  112  A    between atoms: _273  and  _274
REMARK  113  A    between atoms: _273  and  _276
REMARK  114  A    between atoms: _276  and  _277
REMARK  115  A    between atoms: _280  and  _282
REMARK  116  A    between atoms: _282  and  _283
REMARK  117  A    between atoms: _282  and  _285
REMARK  118  A    between atoms: _285  and  _286
REMARK  119  A    between atoms: _286  and  _287
REMARK  120  A    between atoms: _287  and  _288
REMARK  121  A    between atoms: _297  and  _299
REMARK  122  A    between atoms: _299  and  _300
REMARK  123  A    between atoms: _299  and  _306
REMARK  124  A    between atoms: _300  and  _301
REMARK  125  A    between atoms: _301  and  _302
REMARK  126  A    between atoms: _302  and  _303
REMARK  127  A    between atoms: _303  and  _304
REMARK  128  A    between atoms: _311  and  _313
REMARK  129  A    between atoms: _313  and  _314
REMARK  130  A    between atoms: _313  and  _316
REMARK  131  A    between atoms: _316  and  _317
REMARK  132  A    between atoms: _319  and  _321
REMARK  133  A    between atoms: _321  and  _322
REMARK  134  A    between atoms: _321  and  _324
REMARK  135  A    between atoms: _324  and  _325
REMARK  136  A    between atoms: _325  and  _326
REMARK  137  A    between atoms: _326  and  _327
REMARK  138  A    between atoms: _327  and  _328
REMARK  139  A    between atoms: _332  and  _334
REMARK  140  A    between atoms: _334  and  _335
REMARK  141  A    between atoms: _338  and  _340
REMARK  142  A    between atoms: _340  and  _341
REMARK  143  A    between atoms: _340  and  _343
REMARK  144  A    between atoms: _343  and  _344
REMARK  145  A    between atoms: _347  and  _349
REMARK  146  A    between atoms: _349  and  _350
REMARK  147  A    between atoms: _349  and  _352
REMARK  148  A    between atoms: _352  and  _353
REMARK  149  A    between atoms: _358  and  _360
REMARK  150  A    between atoms: _360  and  _361
REMARK  151  A    between atoms: _360  and  _363
REMARK  152  A    between atoms: _363  and  _364
REMARK  153  A    between atoms: _367  and  _369
REMARK  154  A    between atoms: _369  and  _370
REMARK  155  A    between atoms: _372  and  _374
REMARK  156  A    between atoms: _374  and  _375
REMARK  157  A    between atoms: _374  and  _377
REMARK  158  A    between atoms: _377  and  _378
REMARK  159  A    between atoms: _378  and  _379
REMARK  160  A    between atoms: _379  and  _380
REMARK  161  A    between atoms: _380  and  _381
REMARK  162  A    between atoms: _386  and  _387
REMARK  163  A    between atoms: _392  and  _394
REMARK  164  A    between atoms: _394  and  _395
REMARK  165  A    between atoms: _398  and  _400
REMARK  166  A    between atoms: _400  and  _401
REMARK  167  A    between atoms: _400  and  _403
REMARK  168  A    between atoms: _405  and  _407
REMARK  169  A    between atoms: _407  and  _408
REMARK  170  A    between atoms: _411  and  _413
REMARK  171  A    between atoms: _413  and  _414
REMARK  172  A    between atoms: _413  and  _416
REMARK  173  A    between atoms: _416  and  _417
REMARK  174  A    between atoms: _419  and  _421
REMARK  175  A    between atoms: _421  and  _422
REMARK  176  A    between atoms: _421  and  _424
REMARK  177  A    between atoms: _424  and  _425
REMARK  178  A    between atoms: _428  and  _430
REMARK  179  A    between atoms: _430  and  _431
REMARK  180  A    between atoms: _430  and  _433
REMARK  181  A    between atoms: _433  and  _434
REMARK  182  A    between atoms: _437  and  _439
REMARK  183  A    between atoms: _439  and  _440
REMARK  184  A    between atoms: _439  and  _442
REMARK  185  A    between atoms: _442  and  _443
REMARK  186  A    between atoms: _443  and  _444
REMARK  187  A    between atoms: _449  and  _451
REMARK  188  A    between atoms: _451  and  _452
REMARK  189  A    between atoms: _451  and  _454
REMARK  190  A    between atoms: _454  and  _455
REMARK  191  A    between atoms: _461  and  _463
REMARK  192  A    between atoms: _463  and  _464
REMARK  193  A    between atoms: _463  and  _466
REMARK  194  A    between atoms: _466  and  _467
REMARK  195  A    between atoms: _467  and  _468
REMARK  196  A    between atoms: _468  and  _469
REMARK  197  A    between atoms: _469  and  _470
REMARK  198  A    between atoms: _474  and  _476
REMARK  199  A    between atoms: _476  and  _477
REMARK  200  A    between atoms: _476  and  _479
REMARK  201  A    between atoms: _479  and  _480
REMARK  202  A    between atoms: _485  and  _487
REMARK  203  A    between atoms: _487  and  _488
REMARK  204  A    between atoms: _487  and  _490
REMARK  205  A    between atoms: _490  and  _491
REMARK  206  A    between atoms: _497  and  _499
REMARK  207  A    between atoms: _499  and  _500
REMARK  208  A    between atoms: _499  and  _502
REMARK  209  A    between atoms: _502  and  _503
REMARK  210  A    between atoms: _503  and  _504
REMARK  211  A    between atoms: _507  and  _509
REMARK  212  A    between atoms: _509  and  _510
REMARK  213  A    between atoms: _509  and  _512
REMARK  214  A    between atoms: _512  and  _513
REMARK  215  A    between atoms: _513  and  _514
REMARK  216  A    between atoms: _519  and  _521
REMARK  217  A    between atoms: _521  and  _522
REMARK  218  A    between atoms: _521  and  _524
REMARK  219  A    between atoms: _524  and  _525
REMARK  220  A    between atoms: _525  and  _526
REMARK  221  A    between atoms: _526  and  _527
REMARK  222  A    between atoms: _536  and  _538
REMARK  223  A    between atoms: _538  and  _539
REMARK                            x       y       z     vdW  Elec       q    Type
REMARK                         _______ _______ _______ _____ _____    ______ ____
ROOT
ATOM      1  CB  HIS A   1       7.805  -5.973  23.901  0.00  0.00    +0.072 C 
ENDROOT
BRANCH   1   2
ATOM      2  CG  HIS A   1       7.515  -4.804  24.805  0.00  0.00    +0.082 A 
ATOM      3  CD2 HIS A   1       8.331  -3.822  25.275  0.00  0.00    +0.115 A 
ATOM      4  NE2 HIS A   1       7.558  -2.980  26.032  0.00  0.00    -0.221 NA
ATOM      5  CE1 HIS A   1       6.305  -3.405  26.001  0.00  0.00    +0.199 A 
ATOM      6  ND1 HIS A   1       6.252  -4.487  25.246  0.00  0.00    -0.227 NA
ENDBRANCH   1   2
BRANCH   1   7
ATOM      7  CA  HIS A   1       7.459  -7.348  24.491  0.00  0.00    +0.139 C 
BRANCH   7   8
ATOM      8  N   HIS A   1       7.953  -8.417  23.631  0.00  0.00    -0.239 NA
ATOM      9  H   HIS A   1       8.459  -8.172  22.756  0.00  0.00    +0.142 HD
ENDBRANCH   7   8
BRANCH   7  10
ATOM     10  C   HIS A   1       5.926  -7.509  24.614  0.00  0.00    +0.224 C 
ATOM     11  O   HIS A   1       5.222  -7.621  23.613  0.00  0.00    -0.287 OA
ENDBRANCH   7  10
ENDBRANCH   1   7
TORSDOF 4
REMARK  Name = ../refined-set-2016/2jfh/2jfh_pocket.pdb
REMARK  223 active torsions:
REMARK  status: ('A' for Active; 'I' for Inactive)
REMARK    1  A    between atoms: _1  and  _3
REMARK    2  A    between atoms: _3  and  _4
REMARK    3  A    between atoms: _3  and  _6
REMARK    4  A    between atoms: _6  and  _7
REMARK    5  A    between atoms: _10  and  _12
REMARK    6  A    between atoms: _12  and  _13
REMARK    7  A    between atoms: _12  and  _15
REMARK    8  A    between atoms: _15  and  _16
REMARK    9  A    between atoms: _19  and  _21
REMARK   10  A    between atoms: _21  and  _22
REMARK   11  A    between atoms: _24  and  _26
REMARK   12  A    between atoms: _26  and  _27
REMARK   13  A    between atoms: _26  and  _29
REMARK   14  A    between atoms: _29  and  _30
REMARK   15  A    between atoms: _33  and  _35
REMARK   16  A    between atoms: _35  and  _36
REMARK   17  A    between atoms: _38  and  _40
REMARK   18  A    between atoms: _40  and  _41
REMARK   19  A    between atoms: _40  and  _43
REMARK   20  A    between atoms: _43  and  _44
REMARK   21  A    between atoms: _47  and  _49
REMARK   22  A    between atoms: _49  and  _50
REMARK   23  A    between atoms: _49  and  _52
REMARK   24  A    between atoms: _52  and  _53
REMARK   25  A    between atoms: _53  and  _54
REMARK   26  A    between atoms: _56  and  _58
REMARK   27  A    between atoms: _58  and  _59
REMARK   28  A    between atoms: _58  and  _61
REMARK   29  A    between atoms: _61  and  _62
REMARK   30  A    between atoms: _65  and  _67
REMARK   31  A    between atoms: _67  and  _68
REMARK   32  A    between atoms: _67  and  _70
REMARK   33  A    between atoms: _70  and  _71
REMARK   34  A    between atoms: _74  and  _76
REMARK   35  A    between atoms: _76  and  _77
REMARK   36  A    between atoms: _76  and  _79
REMARK   37  A    between atoms: _79  and  _80
REMARK   38  A    between atoms: _80  and  _81
REMARK   39  A    between atoms: _81  and  _82
REMARK   40  A    between atoms: _92  and  _93
REMARK   41  A    between atoms: _99  and  _100
REMARK   42  A    between atoms: _105  and  _107
REMARK   43  A    between atoms: _107  and  _108
REMARK   44  A    between atoms: _110  and  _112
REMARK   45  A    between atoms: _112  and  _113
REMARK   46  A    between atoms: _112  and  _115
REMARK   47  A    between atoms: _115  and  _116
REMARK   48  A    between atoms: _118  and  _120
REMARK   49  A    between atoms: _120  and  _121
REMARK   50  A    between atoms: _120  and  _123
REMARK   51  A    between atoms: _123  and  _124
REMARK   52  A    between atoms: _127  and  _129
REMARK   53  A    between atoms: _129  and  _130
REMARK   54  A    between atoms: _133  and  _135
REMARK   55  A    between atoms: _135  and  _136
REMARK   56  A    between atoms: _135  and  _138
REMARK   57  A    between atoms: _138  and  _139
REMARK   58  A    between atoms: _142  and  _143
REMARK   59  A    between atoms: _148  and  _150
REMARK   60  A    between atoms: _150  and  _151
REMARK   61  A    between atoms: _153  and  _155
REMARK   62  A    between atoms: _155  and  _156
REMARK   63  A    between atoms: _155  and  _158
REMARK   64  A    between atoms: _158  and  _159
REMARK   65  A    between atoms: _162  and  _164
REMARK   66  A    between atoms: _164  and  _165
REMARK   67  A    between atoms: _168  and  _170
REMARK   68  A    between atoms: _170  and  _171
REMARK   69  A    between atoms: _170  and  _173
REMARK   70  A    between atoms: _173  and  _174
REMARK   71  A    between atoms: _179  and  _181
REMARK   72  A    between atoms: _181  and  _182
REMARK   73  A    between atoms: _181  and  _184
REMARK   74  A    between atoms: _184  and  _185
REMARK   75  A    between atoms: _187  and  _189
REMARK   76  A    between atoms: _189  and  _190
REMARK   77  A    between atoms: _189  and  _192
REMARK   78  A    between atoms: _192  and  _193
REMARK   79  A    between atoms: _193  and  _194
REMARK   80  A    between atoms: _194  and  _195
REMARK   81  A    between atoms: _195  and  _196
REMARK   82  A    between atoms: _200  and  _202
REMARK   83  A    between atoms: _202  and  _203
REMARK   84  A    between atoms: _202  and  _205
REMARK   85  A    between atoms: _205  and  _206
REMARK   86  A    between atoms: _211  and  _213
REMARK   87  A    between atoms: _213  and  _214
REMARK   88  A    between atoms: _213  and  _216
REMARK   89  A    between atoms: _216  and  _217
REMARK   90  A    between atoms: _219  and  _221
REMARK   91  A    between atoms: _221  and  _222
REMARK   92  A    between atoms: _221  and  _224
REMARK   93  A    between atoms: _224  and  _225
REMARK   94  A    between atoms: _227  and  _229
REMARK   95  A    between atoms: _229  and  _230
REMARK   96  A    between atoms: _229  and  _232
REMARK   97  A    between atoms: _232  and  _233
REMARK   98  A    between atoms: _239  and  _241
REMARK   99  A    between atoms: _241  and  _242
REMARK  100  A    between atoms: _241  and  _244
REMARK  101  A    between atoms: _244  and  _245
REMARK  102  A    between atoms: _245  and  _246
REMARK  103  A    between atoms: _251  and  _253
REMARK  104  A    between atoms: _253  and  _254
REMARK  105  A    between atoms: _253  and  _256
REMARK  106  A    between atoms: _256  and  _257
REMARK  107  A    between atoms: _260  and  _262
REMARK  108  A    between atoms: _262  and  _263
REMARK  109  A    between atoms: _262  and  _265
REMARK  110  A    between atoms: _265  and  _266
REMARK  111  A    between atoms: _271  and  _273
REMARK  112  A    between atoms: _273  and  _274
REMARK  113  A    between atoms: _273  and  _276
REMARK  114  A    between atoms: _276  and  _277
REMARK  115  A    between atoms: _280  and  _282
REMARK  116  A    between atoms: _282  and  _283
REMARK  117  A    between atoms: _282  and  _285
REMARK  118  A    between atoms: _285  and  _286
REMARK  119  A    between atoms: _286  and  _287
REMARK  120  A    between atoms: _287  and  _288
REMARK  121  A    between atoms: _297  and  _299
REMARK  122  A    between atoms: _299  and  _300
REMARK  123  A    between atoms: _299  and  _306
REMARK  124  A    between atoms: _300  and  _301
REMARK  125  A    between atoms: _301  and  _302
REMARK  126  A    between atoms: _302  and  _303
REMARK  127  A    between atoms: _303  and  _304
REMARK  128  A    between atoms: _311  and  _313
REMARK  129  A    between atoms: _313  and  _314
REMARK  130  A    between atoms: _313  and  _316
REMARK  131  A    between atoms: _316  and  _317
REMARK  132  A    between atoms: _319  and  _321
REMARK  133  A    between atoms: _321  and  _322
REMARK  134  A    between atoms: _321  and  _324
REMARK  135  A    between atoms: _324  and  _325
REMARK  136  A    between atoms: _325  and  _326
REMARK  137  A    between atoms: _326  and  _327
REMARK  138  A    between atoms: _327  and  _328
REMARK  139  A    between atoms: _332  and  _334
REMARK  140  A    between atoms: _334  and  _335
REMARK  141  A    between atoms: _338  and  _340
REMARK  142  A    between atoms: _340  and  _341
REMARK  143  A    between atoms: _340  and  _343
REMARK  144  A    between atoms: _343  and  _344
REMARK  145  A    between atoms: _347  and  _349
REMARK  146  A    between atoms: _349  and  _350
REMARK  147  A    between atoms: _349  and  _352
REMARK  148  A    between atoms: _352  and  _353
REMARK  149  A    between atoms: _358  and  _360
REMARK  150  A    between atoms: _360  and  _361
REMARK  151  A    between atoms: _360  and  _363
REMARK  152  A    between atoms: _363  and  _364
REMARK  153  A    between atoms: _367  and  _369
REMARK  154  A    between atoms: _369  and  _370
REMARK  155  A    between atoms: _372  and  _374
REMARK  156  A    between atoms: _374  and  _375
REMARK  157  A    between atoms: _374  and  _377
REMARK  158  A    between atoms: _377  and  _378
REMARK  159  A    between atoms: _378  and  _379
REMARK  160  A    between atoms: _379  and  _380
REMARK  161  A    between atoms: _380  and  _381
REMARK  162  A    between atoms: _386  and  _387
REMARK  163  A    between atoms: _392  and  _394
REMARK  164  A    between atoms: _394  and  _395
REMARK  165  A    between atoms: _398  and  _400
REMARK  166  A    between atoms: _400  and  _401
REMARK  167  A    between atoms: _400  and  _403
REMARK  168  A    between atoms: _405  and  _407
REMARK  169  A    between atoms: _407  and  _408
REMARK  170  A    between atoms: _411  and  _413
REMARK  171  A    between atoms: _413  and  _414
REMARK  172  A    between atoms: _413  and  _416
REMARK  173  A    between atoms: _416  and  _417
REMARK  174  A    between atoms: _419  and  _421
REMARK  175  A    between atoms: _421  and  _422
REMARK  176  A    between atoms: _421  and  _424
REMARK  177  A    between atoms: _424  and  _425
REMARK  178  A    between atoms: _428  and  _430
REMARK  179  A    between atoms: _430  and  _431
REMARK  180  A    between atoms: _430  and  _433
REMARK  181  A    between atoms: _433  and  _434
REMARK  182  A    between atoms: _437  and  _439
REMARK  183  A    between atoms: _439  and  _440
REMARK  184  A    between atoms: _439  and  _442
REMARK  185  A    between atoms: _442  and  _443
REMARK  186  A    between atoms: _443  and  _444
REMARK  187  A    between atoms: _449  and  _451
REMARK  188  A    between atoms: _451  and  _452
REMARK  189  A    between atoms: _451  and  _454
REMARK  190  A    between atoms: _454  and  _455
REMARK  191  A    between atoms: _461  and  _463
REMARK  192  A    between atoms: _463  and  _464
REMARK  193  A    between atoms: _463  and  _466
REMARK  194  A    between atoms: _466  and  _467
REMARK  195  A    between atoms: _467  and  _468
REMARK  196  A    between atoms: _468  and  _469
REMARK  197  A    between atoms: _469  and  _470
REMARK  198  A    between atoms: _474  and  _476
REMARK  199  A    between atoms: _476  and  _477
REMARK  200  A    between atoms: _476  and  _479
REMARK  201  A    between atoms: _479  and  _480
REMARK  202  A    between atoms: _485  and  _487
REMARK  203  A    between atoms: _487  and  _488
REMARK  204  A    between atoms: _487  and  _490
REMARK  205  A    between atoms: _490  and  _491
REMARK  206  A    between atoms: _497  and  _499
REMARK  207  A    between atoms: _499  and  _500
REMARK  208  A    between atoms: _499  and  _502
REMARK  209  A    between atoms: _502  and  _503
REMARK  210  A    between atoms: _503  and  _504
REMARK  211  A    between atoms: _507  and  _509
REMARK  212  A    between atoms: _509  and  _510
REMARK  213  A    between atoms: _509  and  _512
REMARK  214  A    between atoms: _512  and  _513
REMARK  215  A    between atoms: _513  and  _514
REMARK  216  A    between atoms: _519  and  _521
REMARK  217  A    between atoms: _521  and  _522
REMARK  218  A    between atoms: _521  and  _524
REMARK  219  A    between atoms: _524  and  _525
REMARK  220  A    between atoms: _525  and  _526
REMARK  221  A    between atoms: _526  and  _527
REMARK  222  A    between atoms: _536  and  _538
REMARK  223  A    between atoms: _538  and  _539
REMARK                            x       y       z     vdW  Elec       q    Type
REMARK                         _______ _______ _______ _____ _____    ______ ____
ROOT
ATOM      1  CA  SER A   1      27.915 -13.527  15.201  0.00  0.00    +0.163 C 
ENDROOT
BRANCH   1   2
ATOM      2  N   SER A   1      27.446 -14.145  13.964  0.00  0.00    -0.237 NA
ATOM      3  H   SER A   1      27.541 -15.172  13.831  0.00  0.00    +0.142 HD
ENDBRANCH   1   2
BRANCH   1   4
ATOM      4  CB  SER A   1      29.177 -12.649  14.989  0.00  0.00    +0.227 C 
ATOM      5  OG  SER A   1      29.348 -11.653  15.703  0.00  0.00    -0.287 OA
ENDBRANCH   1   4
BRANCH   1   6
ATOM      6  C   SER A   1      28.167 -14.577  16.268  0.00  0.00    +0.162 C 
BRANCH   6   7
ATOM      7  O   SER A   1      27.016 -15.408  16.358  0.00  0.00    -0.380 OA
ATOM      8  H   SER A   1      26.231 -14.857  16.602  0.00  0.00    +0.211 HD
ENDBRANCH   6   7
ENDBRANCH   1   6
TORSDOF 4
REMARK  Name = ../refined-set-2016/2jfh/2jfh_pocket.pdb
REMARK  223 active torsions:
REMARK  status: ('A' for Active; 'I' for Inactive)
REMARK    1  A    between atoms: _1  and  _3
REMARK    2  A    between atoms: _3  and  _4
REMARK    3  A    between atoms: _3  and  _6
REMARK    4  A    between atoms: _6  and  _7
REMARK    5  A    between atoms: _10  and  _12
REMARK    6  A    between atoms: _12  and  _13
REMARK    7  A    between atoms: _12  and  _15
REMARK    8  A    between atoms: _15  and  _16
REMARK    9  A    between atoms: _19  and  _21
REMARK   10  A    between atoms: _21  and  _22
REMARK   11  A    between atoms: _24  and  _26
REMARK   12  A    between atoms: _26  and  _27
REMARK   13  A    between atoms: _26  and  _29
REMARK   14  A    between atoms: _29  and  _30
REMARK   15  A    between atoms: _33  and  _35
REMARK   16  A    between atoms: _35  and  _36
REMARK   17  A    between atoms: _38  and  _40
REMARK   18  A    between atoms: _40  and  _41
REMARK   19  A    between atoms: _40  and  _43
REMARK   20  A    between atoms: _43  and  _44
REMARK   21  A    between atoms: _47  and  _49
REMARK   22  A    between atoms: _49  and  _50
REMARK   23  A    between atoms: _49  and  _52
REMARK   24  A    between atoms: _52  and  _53
REMARK   25  A    between atoms: _53  and  _54
REMARK   26  A    between atoms: _56  and  _58
REMARK   27  A    between atoms: _58  and  _59
REMARK   28  A    between atoms: _58  and  _61
REMARK   29  A    between atoms: _61  and  _62
REMARK   30  A    between atoms: _65  and  _67
REMARK   31  A    between atoms: _67  and  _68
REMARK   32  A    between atoms: _67  and  _70
REMARK   33  A    between atoms: _70  and  _71
REMARK   34  A    between atoms: _74  and  _76
REMARK   35  A    between atoms: _76  and  _77
REMARK   36  A    between atoms: _76  and  _79
REMARK   37  A    between atoms: _79  and  _80
REMARK   38  A    between atoms: _80  and  _81
REMARK   39  A    between atoms: _81  and  _82
REMARK   40  A    between atoms: _92  and  _93
REMARK   41  A    between atoms: _99  and  _100
REMARK   42  A    between atoms: _105  and  _107
REMARK   43  A    between atoms: _107  and  _108
REMARK   44  A    between atoms: _110  and  _112
REMARK   45  A    between atoms: _112  and  _113
REMARK   46  A    between atoms: _112  and  _115
REMARK   47  A    between atoms: _115  and  _116
REMARK   48  A    between atoms: _118  and  _120
REMARK   49  A    between atoms: _120  and  _121
REMARK   50  A    between atoms: _120  and  _123
REMARK   51  A    between atoms: _123  and  _124
REMARK   52  A    between atoms: _127  and  _129
REMARK   53  A    between atoms: _129  and  _130
REMARK   54  A    between atoms: _133  and  _135
REMARK   55  A    between atoms: _135  and  _136
REMARK   56  A    between atoms: _135  and  _138
REMARK   57  A    between atoms: _138  and  _139
REMARK   58  A    between atoms: _142  and  _143
REMARK   59  A    between atoms: _148  and  _150
REMARK   60  A    between atoms: _150  and  _151
REMARK   61  A    between atoms: _153  and  _155
REMARK   62  A    between atoms: _155  and  _156
REMARK   63  A    between atoms: _155  and  _158
REMARK   64  A    between atoms: _158  and  _159
REMARK   65  A    between atoms: _162  and  _164
REMARK   66  A    between atoms: _164  and  _165
REMARK   67  A    between atoms: _168  and  _170
REMARK   68  A    between atoms: _170  and  _171
REMARK   69  A    between atoms: _170  and  _173
REMARK   70  A    between atoms: _173  and  _174
REMARK   71  A    between atoms: _179  and  _181
REMARK   72  A    between atoms: _181  and  _182
REMARK   73  A    between atoms: _181  and  _184
REMARK   74  A    between atoms: _184  and  _185
REMARK   75  A    between atoms: _187  and  _189
REMARK   76  A    between atoms: _189  and  _190
REMARK   77  A    between atoms: _189  and  _192
REMARK   78  A    between atoms: _192  and  _193
REMARK   79  A    between atoms: _193  and  _194
REMARK   80  A    between atoms: _194  and  _195
REMARK   81  A    between atoms: _195  and  _196
REMARK   82  A    between atoms: _200  and  _202
REMARK   83  A    between atoms: _202  and  _203
REMARK   84  A    between atoms: _202  and  _205
REMARK   85  A    between atoms: _205  and  _206
REMARK   86  A    between atoms: _211  and  _213
REMARK   87  A    between atoms: _213  and  _214
REMARK   88  A    between atoms: _213  and  _216
REMARK   89  A    between atoms: _216  and  _217
REMARK   90  A    between atoms: _219  and  _221
REMARK   91  A    between atoms: _221  and  _222
REMARK   92  A    between atoms: _221  and  _224
REMARK   93  A    between atoms: _224  and  _225
REMARK   94  A    between atoms: _227  and  _229
REMARK   95  A    between atoms: _229  and  _230
REMARK   96  A    between atoms: _229  and  _232
REMARK   97  A    between atoms: _232  and  _233
REMARK   98  A    between atoms: _239  and  _241
REMARK   99  A    between atoms: _241  and  _242
REMARK  100  A    between atoms: _241  and  _244
REMARK  101  A    between atoms: _244  and  _245
REMARK  102  A    between atoms: _245  and  _246
REMARK  103  A    between atoms: _251  and  _253
REMARK  104  A    between atoms: _253  and  _254
REMARK  105  A    between atoms: _253  and  _256
REMARK  106  A    between atoms: _256  and  _257
REMARK  107  A    between atoms: _260  and  _262
REMARK  108  A    between atoms: _262  and  _263
REMARK  109  A    between atoms: _262  and  _265
REMARK  110  A    between atoms: _265  and  _266
REMARK  111  A    between atoms: _271  and  _273
REMARK  112  A    between atoms: _273  and  _274
REMARK  113  A    between atoms: _273  and  _276
REMARK  114  A    between atoms: _276  and  _277
REMARK  115  A    between atoms: _280  and  _282
REMARK  116  A    between atoms: _282  and  _283
REMARK  117  A    between atoms: _282  and  _285
REMARK  118  A    between atoms: _285  and  _286
REMARK  119  A    between atoms: _286  and  _287
REMARK  120  A    between atoms: _287  and  _288
REMARK  121  A    between atoms: _297  and  _299
REMARK  122  A    between atoms: _299  and  _300
REMARK  123  A    between atoms: _299  and  _306
REMARK  124  A    between atoms: _300  and  _301
REMARK  125  A    between atoms: _301  and  _302
REMARK  126  A    between atoms: _302  and  _303
REMARK  127  A    between atoms: _303  and  _304
REMARK  128  A    between atoms: _311  and  _313
REMARK  129  A    between atoms: _313  and  _314
REMARK  130  A    between atoms: _313  and  _316
REMARK  131  A    between atoms: _316  and  _317
REMARK  132  A    between atoms: _319  and  _321
REMARK  133  A    between atoms: _321  and  _322
REMARK  134  A    between atoms: _321  and  _324
REMARK  135  A    between atoms: _324  and  _325
REMARK  136  A    between atoms: _325  and  _326
REMARK  137  A    between atoms: _326  and  _327
REMARK  138  A    between atoms: _327  and  _328
REMARK  139  A    between atoms: _332  and  _334
REMARK  140  A    between atoms: _334  and  _335
REMARK  141  A    between atoms: _338  and  _340
REMARK  142  A    between atoms: _340  and  _341
REMARK  143  A    between atoms: _340  and  _343
REMARK  144  A    between atoms: _343  and  _344
REMARK  145  A    between atoms: _347  and  _349
REMARK  146  A    between atoms: _349  and  _350
REMARK  147  A    between atoms: _349  and  _352
REMARK  148  A    between atoms: _352  and  _353
REMARK  149  A    between atoms: _358  and  _360
REMARK  150  A    between atoms: _360  and  _361
REMARK  151  A    between atoms: _360  and  _363
REMARK  152  A    between atoms: _363  and  _364
REMARK  153  A    between atoms: _367  and  _369
REMARK  154  A    between atoms: _369  and  _370
REMARK  155  A    between atoms: _372  and  _374
REMARK  156  A    between atoms: _374  and  _375
REMARK  157  A    between atoms: _374  and  _377
REMARK  158  A    between atoms: _377  and  _378
REMARK  159  A    between atoms: _378  and  _379
REMARK  160  A    between atoms: _379  and  _380
REMARK  161  A    between atoms: _380  and  _381
REMARK  162  A    between atoms: _386  and  _387
REMARK  163  A    between atoms: _392  and  _394
REMARK  164  A    between atoms: _394  and  _395
REMARK  165  A    between atoms: _398  and  _400
REMARK  166  A    between atoms: _400  and  _401
REMARK  167  A    between atoms: _400  and  _403
REMARK  168  A    between atoms: _405  and  _407
REMARK  169  A    between atoms: _407  and  _408
REMARK  170  A    between atoms: _411  and  _413
REMARK  171  A    between atoms: _413  and  _414
REMARK  172  A    between atoms: _413  and  _416
REMARK  173  A    between atoms: _416  and  _417
REMARK  174  A    between atoms: _419  and  _421
REMARK  175  A    between atoms: _421  and  _422
REMARK  176  A    between atoms: _421  and  _424
REMARK  177  A    between atoms: _424  and  _425
REMARK  178  A    between atoms: _428  and  _430
REMARK  179  A    between atoms: _430  and  _431
REMARK  180  A    between atoms: _430  and  _433
REMARK  181  A    between atoms: _433  and  _434
REMARK  182  A    between atoms: _437  and  _439
REMARK  183  A    between atoms: _439  and  _440
REMARK  184  A    between atoms: _439  and  _442
REMARK  185  A    between atoms: _442  and  _443
REMARK  186  A    between atoms: _443  and  _444
REMARK  187  A    between atoms: _449  and  _451
REMARK  188  A    between atoms: _451  and  _452
REMARK  189  A    between atoms: _451  and  _454
REMARK  190  A    between atoms: _454  and  _455
REMARK  191  A    between atoms: _461  and  _463
REMARK  192  A    between atoms: _463  and  _464
REMARK  193  A    between atoms: _463  and  _466
REMARK  194  A    between atoms: _466  and  _467
REMARK  195  A    between atoms: _467  and  _468
REMARK  196  A    between atoms: _468  and  _469
REMARK  197  A    between atoms: _469  and  _470
REMARK  198  A    between atoms: _474  and  _476
REMARK  199  A    between atoms: _476  and  _477
REMARK  200  A    between atoms: _476  and  _479
REMARK  201  A    between atoms: _479  and  _480
REMARK  202  A    between atoms: _485  and  _487
REMARK  203  A    between atoms: _487  and  _488
REMARK  204  A    between atoms: _487  and  _490
REMARK  205  A    between atoms: _490  and  _491
REMARK  206  A    between atoms: _497  and  _499
REMARK  207  A    between atoms: _499  and  _500
REMARK  208  A    between atoms: _499  and  _502
REMARK  209  A    between atoms: _502  and  _503
REMARK  210  A    between atoms: _503  and  _504
REMARK  211  A    between atoms: _507  and  _509
REMARK  212  A    between atoms: _509  and  _510
REMARK  213  A    between atoms: _509  and  _512
REMARK  214  A    between atoms: _512  and  _513
REMARK  215  A    between atoms: _513  and  _514
REMARK  216  A    between atoms: _519  and  _521
REMARK  217  A    between atoms: _521  and  _522
REMARK  218  A    between atoms: _521  and  _524
REMARK  219  A    between atoms: _524  and  _525
REMARK  220  A    between atoms: _525  and  _526
REMARK  221  A    between atoms: _526  and  _527
REMARK  222  A    between atoms: _536  and  _538
REMARK  223  A    between atoms: _538  and  _539
REMARK                            x       y       z     vdW  Elec       q    Type
REMARK                         _______ _______ _______ _____ _____    ______ ____
ROOT
ATOM      1  CG  LYS A   1      27.568  -9.331  10.712  0.00  0.00    -0.000 C 
ENDROOT
BRANCH   1   2
ATOM      2  CB  LYS A   1      27.826 -10.089   9.443  0.00  0.00    +0.025 C 
BRANCH   2   3
ATOM      3  CA  LYS A   1      29.233  -9.955   8.836  0.00  0.00    +0.133 C 
BRANCH   3   4
ATOM      4  N   LYS A   1      30.317 -10.361   9.765  0.00  0.00    -0.239 NA
ATOM      5  H   LYS A   1      30.133 -10.422  10.787  0.00  0.00    +0.142 HD
ENDBRANCH   3   4
BRANCH   3   6
ATOM      6  C   LYS A   1      29.479  -8.561   8.174  0.00  0.00    +0.224 C 
ATOM      7  O   LYS A   1      29.162  -8.368   6.983  0.00  0.00    -0.287 OA
ENDBRANCH   3   6
ENDBRANCH   2   3
ENDBRANCH   1   2
BRANCH   1   8
ATOM      8  CD  LYS A   1      26.160  -9.679  11.258  0.00  0.00    -0.024 C 
BRANCH   8   9
ATOM      9  CE  LYS A   1      25.913  -9.057  12.598  0.00  0.00    -0.086 C 
BRANCH   9  10
ATOM     10  NZ  LYS A   1      26.933  -9.599  13.515  0.00  0.00    +0.380 N 
ATOM     11  HZ1 LYS A   1      26.798  -9.191  14.462  0.00  0.00    -0.089 HD
ATOM     12  HZ2 LYS A   1      26.838 -10.633  13.565  0.00  0.00    -0.089 HD
ATOM     13  HZ3 LYS A   1      27.880  -9.353  13.163  0.00  0.00    -0.089 HD
ENDBRANCH   9  10
ENDBRANCH   8   9
ENDBRANCH   1   8
TORSDOF 7
REMARK  Name = ../refined-set-2016/2jfh/2jfh_pocket.pdb
REMARK  223 active torsions:
REMARK  status: ('A' for Active; 'I' for Inactive)
REMARK    1  A    between atoms: _1  and  _3
REMARK    2  A    between atoms: _3  and  _4
REMARK    3  A    between atoms: _3  and  _6
REMARK    4  A    between atoms: _6  and  _7
REMARK    5  A    between atoms: _10  and  _12
REMARK    6  A    between atoms: _12  and  _13
REMARK    7  A    between atoms: _12  and  _15
REMARK    8  A    between atoms: _15  and  _16
REMARK    9  A    between atoms: _19  and  _21
REMARK   10  A    between atoms: _21  and  _22
REMARK   11  A    between atoms: _24  and  _26
REMARK   12  A    between atoms: _26  and  _27
REMARK   13  A    between atoms: _26  and  _29
REMARK   14  A    between atoms: _29  and  _30
REMARK   15  A    between atoms: _33  and  _35
REMARK   16  A    between atoms: _35  and  _36
REMARK   17  A    between atoms: _38  and  _40
REMARK   18  A    between atoms: _40  and  _41
REMARK   19  A    between atoms: _40  and  _43
REMARK   20  A    between atoms: _43  and  _44
REMARK   21  A    between atoms: _47  and  _49
REMARK   22  A    between atoms: _49  and  _50
REMARK   23  A    between atoms: _49  and  _52
REMARK   24  A    between atoms: _52  and  _53
REMARK   25  A    between atoms: _53  and  _54
REMARK   26  A    between atoms: _56  and  _58
REMARK   27  A    between atoms: _58  and  _59
REMARK   28  A    between atoms: _58  and  _61
REMARK   29  A    between atoms: _61  and  _62
REMARK   30  A    between atoms: _65  and  _67
REMARK   31  A    between atoms: _67  and  _68
REMARK   32  A    between atoms: _67  and  _70
REMARK   33  A    between atoms: _70  and  _71
REMARK   34  A    between atoms: _74  and  _76
REMARK   35  A    between atoms: _76  and  _77
REMARK   36  A    between atoms: _76  and  _79
REMARK   37  A    between atoms: _79  and  _80
REMARK   38  A    between atoms: _80  and  _81
REMARK   39  A    between atoms: _81  and  _82
REMARK   40  A    between atoms: _92  and  _93
REMARK   41  A    between atoms: _99  and  _100
REMARK   42  A    between atoms: _105  and  _107
REMARK   43  A    between atoms: _107  and  _108
REMARK   44  A    between atoms: _110  and  _112
REMARK   45  A    between atoms: _112  and  _113
REMARK   46  A    between atoms: _112  and  _115
REMARK   47  A    between atoms: _115  and  _116
REMARK   48  A    between atoms: _118  and  _120
REMARK   49  A    between atoms: _120  and  _121
REMARK   50  A    between atoms: _120  and  _123
REMARK   51  A    between atoms: _123  and  _124
REMARK   52  A    between atoms: _127  and  _129
REMARK   53  A    between atoms: _129  and  _130
REMARK   54  A    between atoms: _133  and  _135
REMARK   55  A    between atoms: _135  and  _136
REMARK   56  A    between atoms: _135  and  _138
REMARK   57  A    between atoms: _138  and  _139
REMARK   58  A    between atoms: _142  and  _143
REMARK   59  A    between atoms: _148  and  _150
REMARK   60  A    between atoms: _150  and  _151
REMARK   61  A    between atoms: _153  and  _155
REMARK   62  A    between atoms: _155  and  _156
REMARK   63  A    between atoms: _155  and  _158
REMARK   64  A    between atoms: _158  and  _159
REMARK   65  A    between atoms: _162  and  _164
REMARK   66  A    between atoms: _164  and  _165
REMARK   67  A    between atoms: _168  and  _170
REMARK   68  A    between atoms: _170  and  _171
REMARK   69  A    between atoms: _170  and  _173
REMARK   70  A    between atoms: _173  and  _174
REMARK   71  A    between atoms: _179  and  _181
REMARK   72  A    between atoms: _181  and  _182
REMARK   73  A    between atoms: _181  and  _184
REMARK   74  A    between atoms: _184  and  _185
REMARK   75  A    between atoms: _187  and  _189
REMARK   76  A    between atoms: _189  and  _190
REMARK   77  A    between atoms: _189  and  _192
REMARK   78  A    between atoms: _192  and  _193
REMARK   79  A    between atoms: _193  and  _194
REMARK   80  A    between atoms: _194  and  _195
REMARK   81  A    between atoms: _195  and  _196
REMARK   82  A    between atoms: _200  and  _202
REMARK   83  A    between atoms: _202  and  _203
REMARK   84  A    between atoms: _202  and  _205
REMARK   85  A    between atoms: _205  and  _206
REMARK   86  A    between atoms: _211  and  _213
REMARK   87  A    between atoms: _213  and  _214
REMARK   88  A    between atoms: _213  and  _216
REMARK   89  A    between atoms: _216  and  _217
REMARK   90  A    between atoms: _219  and  _221
REMARK   91  A    between atoms: _221  and  _222
REMARK   92  A    between atoms: _221  and  _224
REMARK   93  A    between atoms: _224  and  _225
REMARK   94  A    between atoms: _227  and  _229
REMARK   95  A    between atoms: _229  and  _230
REMARK   96  A    between atoms: _229  and  _232
REMARK   97  A    between atoms: _232  and  _233
REMARK   98  A    between atoms: _239  and  _241
REMARK   99  A    between atoms: _241  and  _242
REMARK  100  A    between atoms: _241  and  _244
REMARK  101  A    between atoms: _244  and  _245
REMARK  102  A    between atoms: _245  and  _246
REMARK  103  A    between atoms: _251  and  _253
REMARK  104  A    between atoms: _253  and  _254
REMARK  105  A    between atoms: _253  and  _256
REMARK  106  A    between atoms: _256  and  _257
REMARK  107  A    between atoms: _260  and  _262
REMARK  108  A    between atoms: _262  and  _263
REMARK  109  A    between atoms: _262  and  _265
REMARK  110  A    between atoms: _265  and  _266
REMARK  111  A    between atoms: _271  and  _273
REMARK  112  A    between atoms: _273  and  _274
REMARK  113  A    between atoms: _273  and  _276
REMARK  114  A    between atoms: _276  and  _277
REMARK  115  A    between atoms: _280  and  _282
REMARK  116  A    between atoms: _282  and  _283
REMARK  117  A    between atoms: _282  and  _285
REMARK  118  A    between atoms: _285  and  _286
REMARK  119  A    between atoms: _286  and  _287
REMARK  120  A    between atoms: _287  and  _288
REMARK  121  A    between atoms: _297  and  _299
REMARK  122  A    between atoms: _299  and  _300
REMARK  123  A    between atoms: _299  and  _306
REMARK  124  A    between atoms: _300  and  _301
REMARK  125  A    between atoms: _301  and  _302
REMARK  126  A    between atoms: _302  and  _303
REMARK  127  A    between atoms: _303  and  _304
REMARK  128  A    between atoms: _311  and  _313
REMARK  129  A    between atoms: _313  and  _314
REMARK  130  A    between atoms: _313  and  _316
REMARK  131  A    between atoms: _316  and  _317
REMARK  132  A    between atoms: _319  and  _321
REMARK  133  A    between atoms: _321  and  _322
REMARK  134  A    between atoms: _321  and  _324
REMARK  135  A    between atoms: _324  and  _325
REMARK  136  A    between atoms: _325  and  _326
REMARK  137  A    between atoms: _326  and  _327
REMARK  138  A    between atoms: _327  and  _328
REMARK  139  A    between atoms: _332  and  _334
REMARK  140  A    between atoms: _334  and  _335
REMARK  141  A    between atoms: _338  and  _340
REMARK  142  A    between atoms: _340  and  _341
REMARK  143  A    between atoms: _340  and  _343
REMARK  144  A    between atoms: _343  and  _344
REMARK  145  A    between atoms: _347  and  _349
REMARK  146  A    between atoms: _349  and  _350
REMARK  147  A    between atoms: _349  and  _352
REMARK  148  A    between atoms: _352  and  _353
REMARK  149  A    between atoms: _358  and  _360
REMARK  150  A    between atoms: _360  and  _361
REMARK  151  A    between atoms: _360  and  _363
REMARK  152  A    between atoms: _363  and  _364
REMARK  153  A    between atoms: _367  and  _369
REMARK  154  A    between atoms: _369  and  _370
REMARK  155  A    between atoms: _372  and  _374
REMARK  156  A    between atoms: _374  and  _375
REMARK  157  A    between atoms: _374  and  _377
REMARK  158  A    between atoms: _377  and  _378
REMARK  159  A    between atoms: _378  and  _379
REMARK  160  A    between atoms: _379  and  _380
REMARK  161  A    between atoms: _380  and  _381
REMARK  162  A    between atoms: _386  and  _387
REMARK  163  A    between atoms: _392  and  _394
REMARK  164  A    between atoms: _394  and  _395
REMARK  165  A    between atoms: _398  and  _400
REMARK  166  A    between atoms: _400  and  _401
REMARK  167  A    between atoms: _400  and  _403
REMARK  168  A    between atoms: _405  and  _407
REMARK  169  A    between atoms: _407  and  _408
REMARK  170  A    between atoms: _411  and  _413
REMARK  171  A    between atoms: _413  and  _414
REMARK  172  A    between atoms: _413  and  _416
REMARK  173  A    between atoms: _416  and  _417
REMARK  174  A    between atoms: _419  and  _421
REMARK  175  A    between atoms: _421  and  _422
REMARK  176  A    between atoms: _421  and  _424
REMARK  177  A    between atoms: _424  and  _425
REMARK  178  A    between atoms: _428  and  _430
REMARK  179  A    between atoms: _430  and  _431
REMARK  180  A    between atoms: _430  and  _433
REMARK  181  A    between atoms: _433  and  _434
REMARK  182  A    between atoms: _437  and  _439
REMARK  183  A    between atoms: _439  and  _440
REMARK  184  A    between atoms: _439  and  _442
REMARK  185  A    between atoms: _442  and  _443
REMARK  186  A    between atoms: _443  and  _444
REMARK  187  A    between atoms: _449  and  _451
REMARK  188  A    between atoms: _451  and  _452
REMARK  189  A    between atoms: _451  and  _454
REMARK  190  A    between atoms: _454  and  _455
REMARK  191  A    between atoms: _461  and  _463
REMARK  192  A    between atoms: _463  and  _464
REMARK  193  A    between atoms: _463  and  _466
REMARK  194  A    between atoms: _466  and  _467
REMARK  195  A    between atoms: _467  and  _468
REMARK  196  A    between atoms: _468  and  _469
REMARK  197  A    between atoms: _469  and  _470
REMARK  198  A    between atoms: _474  and  _476
REMARK  199  A    between atoms: _476  and  _477
REMARK  200  A    between atoms: _476  and  _479
REMARK  201  A    between atoms: _479  and  _480
REMARK  202  A    between atoms: _485  and  _487
REMARK  203  A    between atoms: _487  and  _488
REMARK  204  A    between atoms: _487  and  _490
REMARK  205  A    between atoms: _490  and  _491
REMARK  206  A    between atoms: _497  and  _499
REMARK  207  A    between atoms: _499  and  _500
REMARK  208  A    between atoms: _499  and  _502
REMARK  209  A    between atoms: _502  and  _503
REMARK  210  A    between atoms: _503  and  _504
REMARK  211  A    between atoms: _507  and  _509
REMARK  212  A    between atoms: _509  and  _510
REMARK  213  A    between atoms: _509  and  _512
REMARK  214  A    between atoms: _512  and  _513
REMARK  215  A    between atoms: _513  and  _514
REMARK  216  A    between atoms: _519  and  _521
REMARK  217  A    between atoms: _521  and  _522
REMARK  218  A    between atoms: _521  and  _524
REMARK  219  A    between atoms: _524  and  _525
REMARK  220  A    between atoms: _525  and  _526
REMARK  221  A    between atoms: _526  and  _527
REMARK  222  A    between atoms: _536  and  _538
REMARK  223  A    between atoms: _538  and  _539
REMARK                            x       y       z     vdW  Elec       q    Type
REMARK                         _______ _______ _______ _____ _____    ______ ____
ROOT
ATOM      1  CB  ASN A   1      22.709  -4.683  10.374  0.00  0.00    +0.110 C 
ENDROOT
BRANCH   1   2
ATOM      2  CG  ASN A   1      22.823  -4.722  11.886  0.00  0.00    +0.221 C 
ATOM      3  OD1 ASN A   1      22.026  -4.113  12.602  0.00  0.00    -0.275 OA
ATOM      4  ND2 ASN A   1      23.795  -5.468  12.378  0.00  0.00    -0.329 N 
ATOM      5 HD21 ASN A   1      23.910  -5.559  13.408  0.00  0.00    +0.145 HD
ATOM      6 HD22 ASN A   1      24.445  -5.965  11.736  0.00  0.00    +0.145 HD
ENDBRANCH   1   2
BRANCH   1   7
ATOM      7  CA  ASN A   1      22.657  -3.255   9.809  0.00  0.00    +0.142 C 
BRANCH   7   8
ATOM      8  N   ASN A   1      22.259  -3.322   8.425  0.00  0.00    -0.239 NA
ATOM      9  H   ASN A   1      22.426  -4.216   7.920  0.00  0.00    +0.142 HD
ENDBRANCH   7   8
BRANCH   7  10
ATOM     10  C   ASN A   1      24.018  -2.555   9.936  0.00  0.00    +0.225 C 
ATOM     11  O   ASN A   1      24.446  -2.176  11.027  0.00  0.00    -0.287 OA
ENDBRANCH   7  10
ENDBRANCH   1   7
TORSDOF 4
REMARK  Name = ../refined-set-2016/2jfh/2jfh_pocket.pdb
REMARK  223 active torsions:
REMARK  status: ('A' for Active; 'I' for Inactive)
REMARK    1  A    between atoms: _1  and  _3
REMARK    2  A    between atoms: _3  and  _4
REMARK    3  A    between atoms: _3  and  _6
REMARK    4  A    between atoms: _6  and  _7
REMARK    5  A    between atoms: _10  and  _12
REMARK    6  A    between atoms: _12  and  _13
REMARK    7  A    between atoms: _12  and  _15
REMARK    8  A    between atoms: _15  and  _16
REMARK    9  A    between atoms: _19  and  _21
REMARK   10  A    between atoms: _21  and  _22
REMARK   11  A    between atoms: _24  and  _26
REMARK   12  A    between atoms: _26  and  _27
REMARK   13  A    between atoms: _26  and  _29
REMARK   14  A    between atoms: _29  and  _30
REMARK   15  A    between atoms: _33  and  _35
REMARK   16  A    between atoms: _35  and  _36
REMARK   17  A    between atoms: _38  and  _40
REMARK   18  A    between atoms: _40  and  _41
REMARK   19  A    between atoms: _40  and  _43
REMARK   20  A    between atoms: _43  and  _44
REMARK   21  A    between atoms: _47  and  _49
REMARK   22  A    between atoms: _49  and  _50
REMARK   23  A    between atoms: _49  and  _52
REMARK   24  A    between atoms: _52  and  _53
REMARK   25  A    between atoms: _53  and  _54
REMARK   26  A    between atoms: _56  and  _58
REMARK   27  A    between atoms: _58  and  _59
REMARK   28  A    between atoms: _58  and  _61
REMARK   29  A    between atoms: _61  and  _62
REMARK   30  A    between atoms: _65  and  _67
REMARK   31  A    between atoms: _67  and  _68
REMARK   32  A    between atoms: _67  and  _70
REMARK   33  A    between atoms: _70  and  _71
REMARK   34  A    between atoms: _74  and  _76
REMARK   35  A    between atoms: _76  and  _77
REMARK   36  A    between atoms: _76  and  _79
REMARK   37  A    between atoms: _79  and  _80
REMARK   38  A    between atoms: _80  and  _81
REMARK   39  A    between atoms: _81  and  _82
REMARK   40  A    between atoms: _92  and  _93
REMARK   41  A    between atoms: _99  and  _100
REMARK   42  A    between atoms: _105  and  _107
REMARK   43  A    between atoms: _107  and  _108
REMARK   44  A    between atoms: _110  and  _112
REMARK   45  A    between atoms: _112  and  _113
REMARK   46  A    between atoms: _112  and  _115
REMARK   47  A    between atoms: _115  and  _116
REMARK   48  A    between atoms: _118  and  _120
REMARK   49  A    between atoms: _120  and  _121
REMARK   50  A    between atoms: _120  and  _123
REMARK   51  A    between atoms: _123  and  _124
REMARK   52  A    between atoms: _127  and  _129
REMARK   53  A    between atoms: _129  and  _130
REMARK   54  A    between atoms: _133  and  _135
REMARK   55  A    between atoms: _135  and  _136
REMARK   56  A    between atoms: _135  and  _138
REMARK   57  A    between atoms: _138  and  _139
REMARK   58  A    between atoms: _142  and  _143
REMARK   59  A    between atoms: _148  and  _150
REMARK   60  A    between atoms: _150  and  _151
REMARK   61  A    between atoms: _153  and  _155
REMARK   62  A    between atoms: _155  and  _156
REMARK   63  A    between atoms: _155  and  _158
REMARK   64  A    between atoms: _158  and  _159
REMARK   65  A    between atoms: _162  and  _164
REMARK   66  A    between atoms: _164  and  _165
REMARK   67  A    between atoms: _168  and  _170
REMARK   68  A    between atoms: _170  and  _171
REMARK   69  A    between atoms: _170  and  _173
REMARK   70  A    between atoms: _173  and  _174
REMARK   71  A    between atoms: _179  and  _181
REMARK   72  A    between atoms: _181  and  _182
REMARK   73  A    between atoms: _181  and  _184
REMARK   74  A    between atoms: _184  and  _185
REMARK   75  A    between atoms: _187  and  _189
REMARK   76  A    between atoms: _189  and  _190
REMARK   77  A    between atoms: _189  and  _192
REMARK   78  A    between atoms: _192  and  _193
REMARK   79  A    between atoms: _193  and  _194
REMARK   80  A    between atoms: _194  and  _195
REMARK   81  A    between atoms: _195  and  _196
REMARK   82  A    between atoms: _200  and  _202
REMARK   83  A    between atoms: _202  and  _203
REMARK   84  A    between atoms: _202  and  _205
REMARK   85  A    between atoms: _205  and  _206
REMARK   86  A    between atoms: _211  and  _213
REMARK   87  A    between atoms: _213  and  _214
REMARK   88  A    between atoms: _213  and  _216
REMARK   89  A    between atoms: _216  and  _217
REMARK   90  A    between atoms: _219  and  _221
REMARK   91  A    between atoms: _221  and  _222
REMARK   92  A    between atoms: _221  and  _224
REMARK   93  A    between atoms: _224  and  _225
REMARK   94  A    between atoms: _227  and  _229
REMARK   95  A    between atoms: _229  and  _230
REMARK   96  A    between atoms: _229  and  _232
REMARK   97  A    between atoms: _232  and  _233
REMARK   98  A    between atoms: _239  and  _241
REMARK   99  A    between atoms: _241  and  _242
REMARK  100  A    between atoms: _241  and  _244
REMARK  101  A    between atoms: _244  and  _245
REMARK  102  A    between atoms: _245  and  _246
REMARK  103  A    between atoms: _251  and  _253
REMARK  104  A    between atoms: _253  and  _254
REMARK  105  A    between atoms: _253  and  _256
REMARK  106  A    between atoms: _256  and  _257
REMARK  107  A    between atoms: _260  and  _262
REMARK  108  A    between atoms: _262  and  _263
REMARK  109  A    between atoms: _262  and  _265
REMARK  110  A    between atoms: _265  and  _266
REMARK  111  A    between atoms: _271  and  _273
REMARK  112  A    between atoms: _273  and  _274
REMARK  113  A    between atoms: _273  and  _276
REMARK  114  A    between atoms: _276  and  _277
REMARK  115  A    between atoms: _280  and  _282
REMARK  116  A    between atoms: _282  and  _283
REMARK  117  A    between atoms: _282  and  _285
REMARK  118  A    between atoms: _285  and  _286
REMARK  119  A    between atoms: _286  and  _287
REMARK  120  A    between atoms: _287  and  _288
REMARK  121  A    between atoms: _297  and  _299
REMARK  122  A    between atoms: _299  and  _300
REMARK  123  A    between atoms: _299  and  _306
REMARK  124  A    between atoms: _300  and  _301
REMARK  125  A    between atoms: _301  and  _302
REMARK  126  A    between atoms: _302  and  _303
REMARK  127  A    between atoms: _303  and  _304
REMARK  128  A    between atoms: _311  and  _313
REMARK  129  A    between atoms: _313  and  _314
REMARK  130  A    between atoms: _313  and  _316
REMARK  131  A    between atoms: _316  and  _317
REMARK  132  A    between atoms: _319  and  _321
REMARK  133  A    between atoms: _321  and  _322
REMARK  134  A    between atoms: _321  and  _324
REMARK  135  A    between atoms: _324  and  _325
REMARK  136  A    between atoms: _325  and  _326
REMARK  137  A    between atoms: _326  and  _327
REMARK  138  A    between atoms: _327  and  _328
REMARK  139  A    between atoms: _332  and  _334
REMARK  140  A    between atoms: _334  and  _335
REMARK  141  A    between atoms: _338  and  _340
REMARK  142  A    between atoms: _340  and  _341
REMARK  143  A    between atoms: _340  and  _343
REMARK  144  A    between atoms: _343  and  _344
REMARK  145  A    between atoms: _347  and  _349
REMARK  146  A    between atoms: _349  and  _350
REMARK  147  A    between atoms: _349  and  _352
REMARK  148  A    between atoms: _352  and  _353
REMARK  149  A    between atoms: _358  and  _360
REMARK  150  A    between atoms: _360  and  _361
REMARK  151  A    between atoms: _360  and  _363
REMARK  152  A    between atoms: _363  and  _364
REMARK  153  A    between atoms: _367  and  _369
REMARK  154  A    between atoms: _369  and  _370
REMARK  155  A    between atoms: _372  and  _374
REMARK  156  A    between atoms: _374  and  _375
REMARK  157  A    between atoms: _374  and  _377
REMARK  158  A    between atoms: _377  and  _378
REMARK  159  A    between atoms: _378  and  _379
REMARK  160  A    between atoms: _379  and  _380
REMARK  161  A    between atoms: _380  and  _381
REMARK  162  A    between atoms: _386  and  _387
REMARK  163  A    between atoms: _392  and  _394
REMARK  164  A    between atoms: _394  and  _395
REMARK  165  A    between atoms: _398  and  _400
REMARK  166  A    between atoms: _400  and  _401
REMARK  167  A    between atoms: _400  and  _403
REMARK  168  A    between atoms: _405  and  _407
REMARK  169  A    between atoms: _407  and  _408
REMARK  170  A    between atoms: _411  and  _413
REMARK  171  A    between atoms: _413  and  _414
REMARK  172  A    between atoms: _413  and  _416
REMARK  173  A    between atoms: _416  and  _417
REMARK  174  A    between atoms: _419  and  _421
REMARK  175  A    between atoms: _421  and  _422
REMARK  176  A    between atoms: _421  and  _424
REMARK  177  A    between atoms: _424  and  _425
REMARK  178  A    between atoms: _428  and  _430
REMARK  179  A    between atoms: _430  and  _431
REMARK  180  A    between atoms: _430  and  _433
REMARK  181  A    between atoms: _433  and  _434
REMARK  182  A    between atoms: _437  and  _439
REMARK  183  A    between atoms: _439  and  _440
REMARK  184  A    between atoms: _439  and  _442
REMARK  185  A    between atoms: _442  and  _443
REMARK  186  A    between atoms: _443  and  _444
REMARK  187  A    between atoms: _449  and  _451
REMARK  188  A    between atoms: _451  and  _452
REMARK  189  A    between atoms: _451  and  _454
REMARK  190  A    between atoms: _454  and  _455
REMARK  191  A    between atoms: _461  and  _463
REMARK  192  A    between atoms: _463  and  _464
REMARK  193  A    between atoms: _463  and  _466
REMARK  194  A    between atoms: _466  and  _467
REMARK  195  A    between atoms: _467  and  _468
REMARK  196  A    between atoms: _468  and  _469
REMARK  197  A    between atoms: _469  and  _470
REMARK  198  A    between atoms: _474  and  _476
REMARK  199  A    between atoms: _476  and  _477
REMARK  200  A    between atoms: _476  and  _479
REMARK  201  A    between atoms: _479  and  _480
REMARK  202  A    between atoms: _485  and  _487
REMARK  203  A    between atoms: _487  and  _488
REMARK  204  A    between atoms: _487  and  _490
REMARK  205  A    between atoms: _490  and  _491
REMARK  206  A    between atoms: _497  and  _499
REMARK  207  A    between atoms: _499  and  _500
REMARK  208  A    between atoms: _499  and  _502
REMARK  209  A    between atoms: _502  and  _503
REMARK  210  A    between atoms: _503  and  _504
REMARK  211  A    between atoms: _507  and  _509
REMARK  212  A    between atoms: _509  and  _510
REMARK  213  A    between atoms: _509  and  _512
REMARK  214  A    between atoms: _512  and  _513
REMARK  215  A    between atoms: _513  and  _514
REMARK  216  A    between atoms: _519  and  _521
REMARK  217  A    between atoms: _521  and  _522
REMARK  218  A    between atoms: _521  and  _524
REMARK  219  A    between atoms: _524  and  _525
REMARK  220  A    between atoms: _525  and  _526
REMARK  221  A    between atoms: _526  and  _527
REMARK  222  A    between atoms: _536  and  _538
REMARK  223  A    between atoms: _538  and  _539
REMARK                            x       y       z     vdW  Elec       q    Type
REMARK                         _______ _______ _______ _____ _____    ______ ____
ROOT
ATOM      1  CA  PHE A   3      16.790  -9.084  15.249  0.00  0.00    +0.153 C 
ENDROOT
BRANCH   1   3
ATOM      2  C   SER A   2      17.936 -10.996  14.327  0.00  0.00    +0.243 C 
ATOM      3  N   PHE A   3      18.032  -9.790  14.887  0.00  0.00    -0.297 N 
ATOM      4  H   PHE A   3      18.961  -9.358  15.064  0.00  0.00    +0.150 HD
ATOM      5  O   SER A   2      16.872 -11.465  14.015  0.00  0.00    -0.273 OA
BRANCH   2   6
ATOM      6  CA  SER A   2      19.232 -11.746  14.037  0.00  0.00    +0.178 C 
BRANCH   6   8
ATOM      7  C   SER A   1      20.051 -10.038  12.613  0.00  0.00    +0.241 C 
ATOM      8  N   SER A   2      20.219 -10.770  13.708  0.00  0.00    -0.295 N 
ATOM      9  H   SER A   2      21.053 -10.634  14.314  0.00  0.00    +0.150 HD
ATOM     10  O   SER A   1      19.042 -10.140  11.888  0.00  0.00    -0.274 OA
BRANCH   7  11
ATOM     11  CA  SER A   1      21.139  -8.959  12.359  0.00  0.00    +0.174 C 
BRANCH  11  12
ATOM     12  N   SER A   1      20.972  -8.427  11.002  0.00  0.00    -0.236 NA
ATOM     13  H   SER A   1      20.388  -7.579  10.858  0.00  0.00    +0.142 HD
ENDBRANCH  11  12
BRANCH  11  14
ATOM     14  CB  SER A   1      20.931  -7.871  13.424  0.00  0.00    +0.163 C 
BRANCH  14  15
ATOM     15  OG  SER A   1      19.567  -7.448  13.389  0.00  0.00    -0.380 OA
ATOM     16  H   SER A   1      19.423  -6.746  14.072  0.00  0.00    +0.211 HD
ENDBRANCH  14  15
ENDBRANCH  11  14
ENDBRANCH   7  11
ENDBRANCH   6   8
BRANCH   6  17
ATOM     17  CB  SER A   2      19.698 -12.607  15.209  0.00  0.00    +0.166 C 
BRANCH  17  18
ATOM     18  OG  SER A   2      19.784 -11.871  16.416  0.00  0.00    -0.380 OA
ATOM     19  H   SER A   2      20.430 -11.129  16.304  0.00  0.00    +0.211 HD
ENDBRANCH  17  18
ENDBRANCH   6  17
ENDBRANCH   2   6
ENDBRANCH   1   3
BRANCH   1  20
ATOM     20  C   PHE A   3      15.958  -8.681  13.995  0.00  0.00    +0.241 C 
ATOM     21  O   PHE A   3      14.720  -8.790  13.997  0.00  0.00    -0.273 OA
ATOM     22  N   GLN A   4      16.623  -8.155  12.964  0.00  0.00    -0.298 N 
ATOM     23  H   GLN A   4      17.639  -7.961  13.076  0.00  0.00    +0.150 HD
BRANCH  22  24
ATOM     24  CA  GLN A   4      15.995  -7.841  11.693  0.00  0.00    +0.137 C 
BRANCH  24  25
ATOM     25  C   GLN A   4      15.321  -9.054  11.004  0.00  0.00    +0.227 C 
ATOM     26  O   GLN A   4      14.264  -8.914  10.406  0.00  0.00    -0.286 OA
ENDBRANCH  24  25
BRANCH  24  27
ATOM     27  CB  GLN A   4      17.025  -7.259  10.705  0.00  0.00    +0.037 C 
BRANCH  27  28
ATOM     28  CG  GLN A   4      17.341  -5.770  10.982  0.00  0.00    +0.087 C 
BRANCH  28  29
ATOM     29  CD  GLN A   4      18.582  -5.304  10.272  0.00  0.00    +0.219 C 
ATOM     30  OE1 GLN A   4      19.484  -6.102  10.009  0.00  0.00    -0.275 OA
ATOM     31  NE2 GLN A   4      18.623  -4.017   9.914  0.00  0.00    -0.329 N 
ATOM     32 HE21 GLN A   4      17.836  -3.383  10.160  0.00  0.00    +0.145 HD
ATOM     33 HE22 GLN A   4      19.442  -3.649   9.389  0.00  0.00    +0.145 HD
ENDBRANCH  28  29
ENDBRANCH  27  28
ENDBRANCH  24  27
ENDBRANCH  22  24
ENDBRANCH   1  20
BRANCH   1  34
ATOM     34  CB  PHE A   3      17.079  -7.844  16.101  0.00  0.00    +0.055 C 
BRANCH  34  35
ATOM     35  CG  PHE A   3      17.816  -8.109  17.397  0.00  0.00    -0.020 A 
ATOM     36  CD2 PHE A   3      17.646  -9.293  18.105  0.00  0.00    -0.004 A 
ATOM     37  CE2 PHE A   3      18.346  -9.490  19.296  0.00  0.00    -0.000 A 
ATOM     38  CZ  PHE A   3      19.173  -8.495  19.820  0.00  0.00    -0.000 A 
ATOM     39  CE1 PHE A   3      19.339  -7.322  19.153  0.00  0.00    -0.000 A 
ATOM     40  CD1 PHE A   3      18.661  -7.126  17.937  0.00  0.00    -0.004 A 
ENDBRANCH  34  35
ENDBRANCH   1  34
TORSDOF 17
REMARK  Name = ../refined-set-2016/2jfh/2jfh_pocket.pdb
REMARK  223 active torsions:
REMARK  status: ('A' for Active; 'I' for Inactive)
REMARK    1  A    between atoms: _1  and  _3
REMARK    2  A    between atoms: _3  and  _4
REMARK    3  A    between atoms: _3  and  _6
REMARK    4  A    between atoms: _6  and  _7
REMARK    5  A    between atoms: _10  and  _12
REMARK    6  A    between atoms: _12  and  _13
REMARK    7  A    between atoms: _12  and  _15
REMARK    8  A    between atoms: _15  and  _16
REMARK    9  A    between atoms: _19  and  _21
REMARK   10  A    between atoms: _21  and  _22
REMARK   11  A    between atoms: _24  and  _26
REMARK   12  A    between atoms: _26  and  _27
REMARK   13  A    between atoms: _26  and  _29
REMARK   14  A    between atoms: _29  and  _30
REMARK   15  A    between atoms: _33  and  _35
REMARK   16  A    between atoms: _35  and  _36
REMARK   17  A    between atoms: _38  and  _40
REMARK   18  A    between atoms: _40  and  _41
REMARK   19  A    between atoms: _40  and  _43
REMARK   20  A    between atoms: _43  and  _44
REMARK   21  A    between atoms: _47  and  _49
REMARK   22  A    between atoms: _49  and  _50
REMARK   23  A    between atoms: _49  and  _52
REMARK   24  A    between atoms: _52  and  _53
REMARK   25  A    between atoms: _53  and  _54
REMARK   26  A    between atoms: _56  and  _58
REMARK   27  A    between atoms: _58  and  _59
REMARK   28  A    between atoms: _58  and  _61
REMARK   29  A    between atoms: _61  and  _62
REMARK   30  A    between atoms: _65  and  _67
REMARK   31  A    between atoms: _67  and  _68
REMARK   32  A    between atoms: _67  and  _70
REMARK   33  A    between atoms: _70  and  _71
REMARK   34  A    between atoms: _74  and  _76
REMARK   35  A    between atoms: _76  and  _77
REMARK   36  A    between atoms: _76  and  _79
REMARK   37  A    between atoms: _79  and  _80
REMARK   38  A    between atoms: _80  and  _81
REMARK   39  A    between atoms: _81  and  _82
REMARK   40  A    between atoms: _92  and  _93
REMARK   41  A    between atoms: _99  and  _100
REMARK   42  A    between atoms: _105  and  _107
REMARK   43  A    between atoms: _107  and  _108
REMARK   44  A    between atoms: _110  and  _112
REMARK   45  A    between atoms: _112  and  _113
REMARK   46  A    between atoms: _112  and  _115
REMARK   47  A    between atoms: _115  and  _116
REMARK   48  A    between atoms: _118  and  _120
REMARK   49  A    between atoms: _120  and  _121
REMARK   50  A    between atoms: _120  and  _123
REMARK   51  A    between atoms: _123  and  _124
REMARK   52  A    between atoms: _127  and  _129
REMARK   53  A    between atoms: _129  and  _130
REMARK   54  A    between atoms: _133  and  _135
REMARK   55  A    between atoms: _135  and  _136
REMARK   56  A    between atoms: _135  and  _138
REMARK   57  A    between atoms: _138  and  _139
REMARK   58  A    between atoms: _142  and  _143
REMARK   59  A    between atoms: _148  and  _150
REMARK   60  A    between atoms: _150  and  _151
REMARK   61  A    between atoms: _153  and  _155
REMARK   62  A    between atoms: _155  and  _156
REMARK   63  A    between atoms: _155  and  _158
REMARK   64  A    between atoms: _158  and  _159
REMARK   65  A    between atoms: _162  and  _164
REMARK   66  A    between atoms: _164  and  _165
REMARK   67  A    between atoms: _168  and  _170
REMARK   68  A    between atoms: _170  and  _171
REMARK   69  A    between atoms: _170  and  _173
REMARK   70  A    between atoms: _173  and  _174
REMARK   71  A    between atoms: _179  and  _181
REMARK   72  A    between atoms: _181  and  _182
REMARK   73  A    between atoms: _181  and  _184
REMARK   74  A    between atoms: _184  and  _185
REMARK   75  A    between atoms: _187  and  _189
REMARK   76  A    between atoms: _189  and  _190
REMARK   77  A    between atoms: _189  and  _192
REMARK   78  A    between atoms: _192  and  _193
REMARK   79  A    between atoms: _193  and  _194
REMARK   80  A    between atoms: _194  and  _195
REMARK   81  A    between atoms: _195  and  _196
REMARK   82  A    between atoms: _200  and  _202
REMARK   83  A    between atoms: _202  and  _203
REMARK   84  A    between atoms: _202  and  _205
REMARK   85  A    between atoms: _205  and  _206
REMARK   86  A    between atoms: _211  and  _213
REMARK   87  A    between atoms: _213  and  _214
REMARK   88  A    between atoms: _213  and  _216
REMARK   89  A    between atoms: _216  and  _217
REMARK   90  A    between atoms: _219  and  _221
REMARK   91  A    between atoms: _221  and  _222
REMARK   92  A    between atoms: _221  and  _224
REMARK   93  A    between atoms: _224  and  _225
REMARK   94  A    between atoms: _227  and  _229
REMARK   95  A    between atoms: _229  and  _230
REMARK   96  A    between atoms: _229  and  _232
REMARK   97  A    between atoms: _232  and  _233
REMARK   98  A    between atoms: _239  and  _241
REMARK   99  A    between atoms: _241  and  _242
REMARK  100  A    between atoms: _241  and  _244
REMARK  101  A    between atoms: _244  and  _245
REMARK  102  A    between atoms: _245  and  _246
REMARK  103  A    between atoms: _251  and  _253
REMARK  104  A    between atoms: _253  and  _254
REMARK  105  A    between atoms: _253  and  _256
REMARK  106  A    between atoms: _256  and  _257
REMARK  107  A    between atoms: _260  and  _262
REMARK  108  A    between atoms: _262  and  _263
REMARK  109  A    between atoms: _262  and  _265
REMARK  110  A    between atoms: _265  and  _266
REMARK  111  A    between atoms: _271  and  _273
REMARK  112  A    between atoms: _273  and  _274
REMARK  113  A    between atoms: _273  and  _276
REMARK  114  A    between atoms: _276  and  _277
REMARK  115  A    between atoms: _280  and  _282
REMARK  116  A    between atoms: _282  and  _283
REMARK  117  A    between atoms: _282  and  _285
REMARK  118  A    between atoms: _285  and  _286
REMARK  119  A    between atoms: _286  and  _287
REMARK  120  A    between atoms: _287  and  _288
REMARK  121  A    between atoms: _297  and  _299
REMARK  122  A    between atoms: _299  and  _300
REMARK  123  A    between atoms: _299  and  _306
REMARK  124  A    between atoms: _300  and  _301
REMARK  125  A    between atoms: _301  and  _302
REMARK  126  A    between atoms: _302  and  _303
REMARK  127  A    between atoms: _303  and  _304
REMARK  128  A    between atoms: _311  and  _313
REMARK  129  A    between atoms: _313  and  _314
REMARK  130  A    between atoms: _313  and  _316
REMARK  131  A    between atoms: _316  and  _317
REMARK  132  A    between atoms: _319  and  _321
REMARK  133  A    between atoms: _321  and  _322
REMARK  134  A    between atoms: _321  and  _324
REMARK  135  A    between atoms: _324  and  _325
REMARK  136  A    between atoms: _325  and  _326
REMARK  137  A    between atoms: _326  and  _327
REMARK  138  A    between atoms: _327  and  _328
REMARK  139  A    between atoms: _332  and  _334
REMARK  140  A    between atoms: _334  and  _335
REMARK  141  A    between atoms: _338  and  _340
REMARK  142  A    between atoms: _340  and  _341
REMARK  143  A    between atoms: _340  and  _343
REMARK  144  A    between atoms: _343  and  _344
REMARK  145  A    between atoms: _347  and  _349
REMARK  146  A    between atoms: _349  and  _350
REMARK  147  A    between atoms: _349  and  _352
REMARK  148  A    between atoms: _352  and  _353
REMARK  149  A    between atoms: _358  and  _360
REMARK  150  A    between atoms: _360  and  _361
REMARK  151  A    between atoms: _360  and  _363
REMARK  152  A    between atoms: _363  and  _364
REMARK  153  A    between atoms: _367  and  _369
REMARK  154  A    between atoms: _369  and  _370
REMARK  155  A    between atoms: _372  and  _374
REMARK  156  A    between atoms: _374  and  _375
REMARK  157  A    between atoms: _374  and  _377
REMARK  158  A    between atoms: _377  and  _378
REMARK  159  A    between atoms: _378  and  _379
REMARK  160  A    between atoms: _379  and  _380
REMARK  161  A    between atoms: _380  and  _381
REMARK  162  A    between atoms: _386  and  _387
REMARK  163  A    between atoms: _392  and  _394
REMARK  164  A    between atoms: _394  and  _395
REMARK  165  A    between atoms: _398  and  _400
REMARK  166  A    between atoms: _400  and  _401
REMARK  167  A    between atoms: _400  and  _403
REMARK  168  A    between atoms: _405  and  _407
REMARK  169  A    between atoms: _407  and  _408
REMARK  170  A    between atoms: _411  and  _413
REMARK  171  A    between atoms: _413  and  _414
REMARK  172  A    between atoms: _413  and  _416
REMARK  173  A    between atoms: _416  and  _417
REMARK  174  A    between atoms: _419  and  _421
REMARK  175  A    between atoms: _421  and  _422
REMARK  176  A    between atoms: _421  and  _424
REMARK  177  A    between atoms: _424  and  _425
REMARK  178  A    between atoms: _428  and  _430
REMARK  179  A    between atoms: _430  and  _431
REMARK  180  A    between atoms: _430  and  _433
REMARK  181  A    between atoms: _433  and  _434
REMARK  182  A    between atoms: _437  and  _439
REMARK  183  A    between atoms: _439  and  _440
REMARK  184  A    between atoms: _439  and  _442
REMARK  185  A    between atoms: _442  and  _443
REMARK  186  A    between atoms: _443  and  _444
REMARK  187  A    between atoms: _449  and  _451
REMARK  188  A    between atoms: _451  and  _452
REMARK  189  A    between atoms: _451  and  _454
REMARK  190  A    between atoms: _454  and  _455
REMARK  191  A    between atoms: _461  and  _463
REMARK  192  A    between atoms: _463  and  _464
REMARK  193  A    between atoms: _463  and  _466
REMARK  194  A    between atoms: _466  and  _467
REMARK  195  A    between atoms: _467  and  _468
REMARK  196  A    between atoms: _468  and  _469
REMARK  197  A    between atoms: _469  and  _470
REMARK  198  A    between atoms: _474  and  _476
REMARK  199  A    between atoms: _476  and  _477
REMARK  200  A    between atoms: _476  and  _479
REMARK  201  A    between atoms: _479  and  _480
REMARK  202  A    between atoms: _485  and  _487
REMARK  203  A    between atoms: _487  and  _488
REMARK  204  A    between atoms: _487  and  _490
REMARK  205  A    between atoms: _490  and  _491
REMARK  206  A    between atoms: _497  and  _499
REMARK  207  A    between atoms: _499  and  _500
REMARK  208  A    between atoms: _499  and  _502
REMARK  209  A    between atoms: _502  and  _503
REMARK  210  A    between atoms: _503  and  _504
REMARK  211  A    between atoms: _507  and  _509
REMARK  212  A    between atoms: _509  and  _510
REMARK  213  A    between atoms: _509  and  _512
REMARK  214  A    between atoms: _512  and  _513
REMARK  215  A    between atoms: _513  and  _514
REMARK  216  A    between atoms: _519  and  _521
REMARK  217  A    between atoms: _521  and  _522
REMARK  218  A    between atoms: _521  and  _524
REMARK  219  A    between atoms: _524  and  _525
REMARK  220  A    between atoms: _525  and  _526
REMARK  221  A    between atoms: _526  and  _527
REMARK  222  A    between atoms: _536  and  _538
REMARK  223  A    between atoms: _538  and  _539
REMARK                            x       y       z     vdW  Elec       q    Type
REMARK                         _______ _______ _______ _____ _____    ______ ____
ROOT
ATOM      1  C   ASP A   1      23.857 -12.840  21.889  0.00  0.00    +0.239 C 
ATOM      2  N   HIS A   2      23.562 -11.637  22.337  0.00  0.00    -0.298 N 
ATOM      3  H   HIS A   2      24.333 -10.994  22.607  0.00  0.00    +0.150 HD
ATOM      4  O   ASP A   1      22.996 -13.739  21.708  0.00  0.00    -0.274 OA
ENDROOT
BRANCH   1   5
ATOM      5  CA  ASP A   1      25.335 -13.125  21.649  0.00  0.00    +0.156 C 
BRANCH   5   6
ATOM      6  N   ASP A   1      25.508 -14.564  21.682  0.00  0.00    -0.238 NA
ATOM      7  H   ASP A   1      24.672 -15.167  21.546  0.00  0.00    +0.142 HD
ENDBRANCH   5   6
BRANCH   5   8
ATOM      8  CB  ASP A   1      25.832 -12.554  20.307  0.00  0.00    +0.140 C 
BRANCH   8   9
ATOM      9  CG  ASP A   1      26.142 -11.077  20.370  0.00  0.00    +0.367 C 
ATOM     10  OD2 ASP A   1      26.008 -10.461  21.463  0.00  0.00    -0.246 OA
ATOM     11  OD1 ASP A   1      26.492 -10.518  19.282  0.00  0.00    -0.246 OA
ENDBRANCH   8   9
ENDBRANCH   5   8
ENDBRANCH   1   5
BRANCH   2  12
ATOM     12  CA  HIS A   2      22.150 -11.173  22.467  0.00  0.00    +0.143 C 
BRANCH  12  13
ATOM     13  C   HIS A   2      21.254 -12.026  23.397  0.00  0.00    +0.227 C 
ATOM     14  O   HIS A   2      20.013 -12.059  23.235  0.00  0.00    -0.286 OA
ENDBRANCH  12  13
BRANCH  12  15
ATOM     15  CB  HIS A   2      21.512 -11.059  21.093  0.00  0.00    +0.075 C 
BRANCH  15  16
ATOM     16  CG  HIS A   2      22.260 -10.142  20.153  0.00  0.00    +0.082 A 
ATOM     17  ND1 HIS A   2      22.465  -8.810  20.424  0.00  0.00    -0.227 NA
ATOM     18  CE1 HIS A   2      23.176  -8.269  19.453  0.00  0.00    +0.199 A 
ATOM     19  NE2 HIS A   2      23.421  -9.194  18.549  0.00  0.00    -0.221 NA
ATOM     20  CD2 HIS A   2      22.876 -10.380  18.970  0.00  0.00    +0.115 A 
ENDBRANCH  15  16
ENDBRANCH  12  15
ENDBRANCH   2  12
TORSDOF 8
REMARK  Name = ../refined-set-2016/2jfh/2jfh_pocket.pdb
REMARK  223 active torsions:
REMARK  status: ('A' for Active; 'I' for Inactive)
REMARK    1  A    between atoms: _1  and  _3
REMARK    2  A    between atoms: _3  and  _4
REMARK    3  A    between atoms: _3  and  _6
REMARK    4  A    between atoms: _6  and  _7
REMARK    5  A    between atoms: _10  and  _12
REMARK    6  A    between atoms: _12  and  _13
REMARK    7  A    between atoms: _12  and  _15
REMARK    8  A    between atoms: _15  and  _16
REMARK    9  A    between atoms: _19  and  _21
REMARK   10  A    between atoms: _21  and  _22
REMARK   11  A    between atoms: _24  and  _26
REMARK   12  A    between atoms: _26  and  _27
REMARK   13  A    between atoms: _26  and  _29
REMARK   14  A    between atoms: _29  and  _30
REMARK   15  A    between atoms: _33  and  _35
REMARK   16  A    between atoms: _35  and  _36
REMARK   17  A    between atoms: _38  and  _40
REMARK   18  A    between atoms: _40  and  _41
REMARK   19  A    between atoms: _40  and  _43
REMARK   20  A    between atoms: _43  and  _44
REMARK   21  A    between atoms: _47  and  _49
REMARK   22  A    between atoms: _49  and  _50
REMARK   23  A    between atoms: _49  and  _52
REMARK   24  A    between atoms: _52  and  _53
REMARK   25  A    between atoms: _53  and  _54
REMARK   26  A    between atoms: _56  and  _58
REMARK   27  A    between atoms: _58  and  _59
REMARK   28  A    between atoms: _58  and  _61
REMARK   29  A    between atoms: _61  and  _62
REMARK   30  A    between atoms: _65  and  _67
REMARK   31  A    between atoms: _67  and  _68
REMARK   32  A    between atoms: _67  and  _70
REMARK   33  A    between atoms: _70  and  _71
REMARK   34  A    between atoms: _74  and  _76
REMARK   35  A    between atoms: _76  and  _77
REMARK   36  A    between atoms: _76  and  _79
REMARK   37  A    between atoms: _79  and  _80
REMARK   38  A    between atoms: _80  and  _81
REMARK   39  A    between atoms: _81  and  _82
REMARK   40  A    between atoms: _92  and  _93
REMARK   41  A    between atoms: _99  and  _100
REMARK   42  A    between atoms: _105  and  _107
REMARK   43  A    between atoms: _107  and  _108
REMARK   44  A    between atoms: _110  and  _112
REMARK   45  A    between atoms: _112  and  _113
REMARK   46  A    between atoms: _112  and  _115
REMARK   47  A    between atoms: _115  and  _116
REMARK   48  A    between atoms: _118  and  _120
REMARK   49  A    between atoms: _120  and  _121
REMARK   50  A    between atoms: _120  and  _123
REMARK   51  A    between atoms: _123  and  _124
REMARK   52  A    between atoms: _127  and  _129
REMARK   53  A    between atoms: _129  and  _130
REMARK   54  A    between atoms: _133  and  _135
REMARK   55  A    between atoms: _135  and  _136
REMARK   56  A    between atoms: _135  and  _138
REMARK   57  A    between atoms: _138  and  _139
REMARK   58  A    between atoms: _142  and  _143
REMARK   59  A    between atoms: _148  and  _150
REMARK   60  A    between atoms: _150  and  _151
REMARK   61  A    between atoms: _153  and  _155
REMARK   62  A    between atoms: _155  and  _156
REMARK   63  A    between atoms: _155  and  _158
REMARK   64  A    between atoms: _158  and  _159
REMARK   65  A    between atoms: _162  and  _164
REMARK   66  A    between atoms: _164  and  _165
REMARK   67  A    between atoms: _168  and  _170
REMARK   68  A    between atoms: _170  and  _171
REMARK   69  A    between atoms: _170  and  _173
REMARK   70  A    between atoms: _173  and  _174
REMARK   71  A    between atoms: _179  and  _181
REMARK   72  A    between atoms: _181  and  _182
REMARK   73  A    between atoms: _181  and  _184
REMARK   74  A    between atoms: _184  and  _185
REMARK   75  A    between atoms: _187  and  _189
REMARK   76  A    between atoms: _189  and  _190
REMARK   77  A    between atoms: _189  and  _192
REMARK   78  A    between atoms: _192  and  _193
REMARK   79  A    between atoms: _193  and  _194
REMARK   80  A    between atoms: _194  and  _195
REMARK   81  A    between atoms: _195  and  _196
REMARK   82  A    between atoms: _200  and  _202
REMARK   83  A    between atoms: _202  and  _203
REMARK   84  A    between atoms: _202  and  _205
REMARK   85  A    between atoms: _205  and  _206
REMARK   86  A    between atoms: _211  and  _213
REMARK   87  A    between atoms: _213  and  _214
REMARK   88  A    between atoms: _213  and  _216
REMARK   89  A    between atoms: _216  and  _217
REMARK   90  A    between atoms: _219  and  _221
REMARK   91  A    between atoms: _221  and  _222
REMARK   92  A    between atoms: _221  and  _224
REMARK   93  A    between atoms: _224  and  _225
REMARK   94  A    between atoms: _227  and  _229
REMARK   95  A    between atoms: _229  and  _230
REMARK   96  A    between atoms: _229  and  _232
REMARK   97  A    between atoms: _232  and  _233
REMARK   98  A    between atoms: _239  and  _241
REMARK   99  A    between atoms: _241  and  _242
REMARK  100  A    between atoms: _241  and  _244
REMARK  101  A    between atoms: _244  and  _245
REMARK  102  A    between atoms: _245  and  _246
REMARK  103  A    between atoms: _251  and  _253
REMARK  104  A    between atoms: _253  and  _254
REMARK  105  A    between atoms: _253  and  _256
REMARK  106  A    between atoms: _256  and  _257
REMARK  107  A    between atoms: _260  and  _262
REMARK  108  A    between atoms: _262  and  _263
REMARK  109  A    between atoms: _262  and  _265
REMARK  110  A    between atoms: _265  and  _266
REMARK  111  A    between atoms: _271  and  _273
REMARK  112  A    between atoms: _273  and  _274
REMARK  113  A    between atoms: _273  and  _276
REMARK  114  A    between atoms: _276  and  _277
REMARK  115  A    between atoms: _280  and  _282
REMARK  116  A    between atoms: _282  and  _283
REMARK  117  A    between atoms: _282  and  _285
REMARK  118  A    between atoms: _285  and  _286
REMARK  119  A    between atoms: _286  and  _287
REMARK  120  A    between atoms: _287  and  _288
REMARK  121  A    between atoms: _297  and  _299
REMARK  122  A    between atoms: _299  and  _300
REMARK  123  A    between atoms: _299  and  _306
REMARK  124  A    between atoms: _300  and  _301
REMARK  125  A    between atoms: _301  and  _302
REMARK  126  A    between atoms: _302  and  _303
REMARK  127  A    between atoms: _303  and  _304
REMARK  128  A    between atoms: _311  and  _313
REMARK  129  A    between atoms: _313  and  _314
REMARK  130  A    between atoms: _313  and  _316
REMARK  131  A    between atoms: _316  and  _317
REMARK  132  A    between atoms: _319  and  _321
REMARK  133  A    between atoms: _321  and  _322
REMARK  134  A    between atoms: _321  and  _324
REMARK  135  A    between atoms: _324  and  _325
REMARK  136  A    between atoms: _325  and  _326
REMARK  137  A    between atoms: _326  and  _327
REMARK  138  A    between atoms: _327  and  _328
REMARK  139  A    between atoms: _332  and  _334
REMARK  140  A    between atoms: _334  and  _335
REMARK  141  A    between atoms: _338  and  _340
REMARK  142  A    between atoms: _340  and  _341
REMARK  143  A    between atoms: _340  and  _343
REMARK  144  A    between atoms: _343  and  _344
REMARK  145  A    between atoms: _347  and  _349
REMARK  146  A    between atoms: _349  and  _350
REMARK  147  A    between atoms: _349  and  _352
REMARK  148  A    between atoms: _352  and  _353
REMARK  149  A    between atoms: _358  and  _360
REMARK  150  A    between atoms: _360  and  _361
REMARK  151  A    between atoms: _360  and  _363
REMARK  152  A    between atoms: _363  and  _364
REMARK  153  A    between atoms: _367  and  _369
REMARK  154  A    between atoms: _369  and  _370
REMARK  155  A    between atoms: _372  and  _374
REMARK  156  A    between atoms: _374  and  _375
REMARK  157  A    between atoms: _374  and  _377
REMARK  158  A    between atoms: _377  and  _378
REMARK  159  A    between atoms: _378  and  _379
REMARK  160  A    between atoms: _379  and  _380
REMARK  161  A    between atoms: _380  and  _381
REMARK  162  A    between atoms: _386  and  _387
REMARK  163  A    between atoms: _392  and  _394
REMARK  164  A    between atoms: _394  and  _395
REMARK  165  A    between atoms: _398  and  _400
REMARK  166  A    between atoms: _400  and  _401
REMARK  167  A    between atoms: _400  and  _403
REMARK  168  A    between atoms: _405  and  _407
REMARK  169  A    between atoms: _407  and  _408
REMARK  170  A    between atoms: _411  and  _413
REMARK  171  A    between atoms: _413  and  _414
REMARK  172  A    between atoms: _413  and  _416
REMARK  173  A    between atoms: _416  and  _417
REMARK  174  A    between atoms: _419  and  _421
REMARK  175  A    between atoms: _421  and  _422
REMARK  176  A    between atoms: _421  and  _424
REMARK  177  A    between atoms: _424  and  _425
REMARK  178  A    between atoms: _428  and  _430
REMARK  179  A    between atoms: _430  and  _431
REMARK  180  A    between atoms: _430  and  _433
REMARK  181  A    between atoms: _433  and  _434
REMARK  182  A    between atoms: _437  and  _439
REMARK  183  A    between atoms: _439  and  _440
REMARK  184  A    between atoms: _439  and  _442
REMARK  185  A    between atoms: _442  and  _443
REMARK  186  A    between atoms: _443  and  _444
REMARK  187  A    between atoms: _449  and  _451
REMARK  188  A    between atoms: _451  and  _452
REMARK  189  A    between atoms: _451  and  _454
REMARK  190  A    between atoms: _454  and  _455
REMARK  191  A    between atoms: _461  and  _463
REMARK  192  A    between atoms: _463  and  _464
REMARK  193  A    between atoms: _463  and  _466
REMARK  194  A    between atoms: _466  and  _467
REMARK  195  A    between atoms: _467  and  _468
REMARK  196  A    between atoms: _468  and  _469
REMARK  197  A    between atoms: _469  and  _470
REMARK  198  A    between atoms: _474  and  _476
REMARK  199  A    between atoms: _476  and  _477
REMARK  200  A    between atoms: _476  and  _479
REMARK  201  A    between atoms: _479  and  _480
REMARK  202  A    between atoms: _485  and  _487
REMARK  203  A    between atoms: _487  and  _488
REMARK  204  A    between atoms: _487  and  _490
REMARK  205  A    between atoms: _490  and  _491
REMARK  206  A    between atoms: _497  and  _499
REMARK  207  A    between atoms: _499  and  _500
REMARK  208  A    between atoms: _499  and  _502
REMARK  209  A    between atoms: _502  and  _503
REMARK  210  A    between atoms: _503  and  _504
REMARK  211  A    between atoms: _507  and  _509
REMARK  212  A    between atoms: _509  and  _510
REMARK  213  A    between atoms: _509  and  _512
REMARK  214  A    between atoms: _512  and  _513
REMARK  215  A    between atoms: _513  and  _514
REMARK  216  A    between atoms: _519  and  _521
REMARK  217  A    between atoms: _521  and  _522
REMARK  218  A    between atoms: _521  and  _524
REMARK  219  A    between atoms: _524  and  _525
REMARK  220  A    between atoms: _525  and  _526
REMARK  221  A    between atoms: _526  and  _527
REMARK  222  A    between atoms: _536  and  _538
REMARK  223  A    between atoms: _538  and  _539
REMARK                            x       y       z     vdW  Elec       q    Type
REMARK                         _______ _______ _______ _____ _____    ______ ____
ROOT
ATOM      1  CA  ARG A   2      16.927 -10.941  23.785  0.00  0.00    +0.137 C 
ENDROOT
BRANCH   1   4
ATOM      2  C   ASP A   1      17.930 -10.608  26.017  0.00  0.00    +0.239 C 
ATOM      3  O   ASP A   1      16.874 -10.271  26.541  0.00  0.00    -0.274 OA
ATOM      4  N   ARG A   2      18.031 -10.970  24.732  0.00  0.00    -0.298 N 
ATOM      5  H   ARG A   2      18.958 -11.293  24.389  0.00  0.00    +0.150 HD
BRANCH   2   6
ATOM      6  CA  ASP A   1      19.232 -10.661  26.849  0.00  0.00    +0.156 C 
BRANCH   6   7
ATOM      7  N   ASP A   1      20.259 -11.498  26.224  0.00  0.00    -0.238 NA
ATOM      8  H   ASP A   1      21.158 -11.073  25.920  0.00  0.00    +0.142 HD
ENDBRANCH   6   7
BRANCH   6   9
ATOM      9  CB  ASP A   1      19.775  -9.250  27.173  0.00  0.00    +0.140 C 
BRANCH   9  10
ATOM     10  CG  ASP A   1      20.303  -8.486  25.931  0.00  0.00    +0.367 C 
ATOM     11  OD2 ASP A   1      20.268  -7.245  25.980  0.00  0.00    -0.246 OA
ATOM     12  OD1 ASP A   1      20.734  -9.075  24.925  0.00  0.00    -0.246 OA
ENDBRANCH   9  10
ENDBRANCH   6   9
ENDBRANCH   2   6
ENDBRANCH   1   4
BRANCH   1  13
ATOM     13  C   ARG A   2      16.402 -12.320  23.378  0.00  0.00    +0.227 C 
ATOM     14  O   ARG A   2      15.398 -12.421  22.667  0.00  0.00    -0.286 OA
ENDBRANCH   1  13
BRANCH   1  15
ATOM     15  CB  ARG A   2      17.332 -10.136  22.556  0.00  0.00    +0.031 C 
BRANCH  15  16
ATOM     16  CG  ARG A   2      17.144  -8.637  22.772  0.00  0.00    +0.045 C 
BRANCH  16  17
ATOM     17  CD  ARG A   2      15.647  -8.283  22.536  0.00  0.00    +0.174 C 
BRANCH  17  18
ATOM     18  NE  ARG A   2      15.092  -8.513  21.169  0.00  0.00    -0.265 N 
ATOM     19  HE  ARG A   2      14.644  -9.435  20.993  0.00  0.00    +0.259 HD
ATOM     20  CZ  ARG A   2      15.116  -7.639  20.139  0.00  0.00    +0.342 C 
ATOM     21  NH2 ARG A   2      15.712  -6.470  20.272  0.00  0.00    -0.292 N 
ATOM     22 HH21 ARG A   2      16.166  -6.217  21.173  0.00  0.00    +0.255 HD
ATOM     23 HH22 ARG A   2      15.728  -5.801  19.476  0.00  0.00    +0.255 HD
ATOM     24  NH1 ARG A   2      14.566  -7.942  18.959  0.00  0.00    -0.292 N 
ATOM     25 HH11 ARG A   2      14.108  -8.866  18.820  0.00  0.00    +0.255 HD
ATOM     26 HH12 ARG A   2      14.596  -7.254  18.179  0.00  0.00    +0.255 HD
ENDBRANCH  17  18
ENDBRANCH  16  17
ENDBRANCH  15  16
ENDBRANCH   1  15
TORSDOF 10
REMARK  Name = ../refined-set-2016/2jfh/2jfh_pocket.pdb
REMARK  223 active torsions:
REMARK  status: ('A' for Active; 'I' for Inactive)
REMARK    1  A    between atoms: _1  and  _3
REMARK    2  A    between atoms: _3  and  _4
REMARK    3  A    between atoms: _3  and  _6
REMARK    4  A    between atoms: _6  and  _7
REMARK    5  A    between atoms: _10  and  _12
REMARK    6  A    between atoms: _12  and  _13
REMARK    7  A    between atoms: _12  and  _15
REMARK    8  A    between atoms: _15  and  _16
REMARK    9  A    between atoms: _19  and  _21
REMARK   10  A    between atoms: _21  and  _22
REMARK   11  A    between atoms: _24  and  _26
REMARK   12  A    between atoms: _26  and  _27
REMARK   13  A    between atoms: _26  and  _29
REMARK   14  A    between atoms: _29  and  _30
REMARK   15  A    between atoms: _33  and  _35
REMARK   16  A    between atoms: _35  and  _36
REMARK   17  A    between atoms: _38  and  _40
REMARK   18  A    between atoms: _40  and  _41
REMARK   19  A    between atoms: _40  and  _43
REMARK   20  A    between atoms: _43  and  _44
REMARK   21  A    between atoms: _47  and  _49
REMARK   22  A    between atoms: _49  and  _50
REMARK   23  A    between atoms: _49  and  _52
REMARK   24  A    between atoms: _52  and  _53
REMARK   25  A    between atoms: _53  and  _54
REMARK   26  A    between atoms: _56  and  _58
REMARK   27  A    between atoms: _58  and  _59
REMARK   28  A    between atoms: _58  and  _61
REMARK   29  A    between atoms: _61  and  _62
REMARK   30  A    between atoms: _65  and  _67
REMARK   31  A    between atoms: _67  and  _68
REMARK   32  A    between atoms: _67  and  _70
REMARK   33  A    between atoms: _70  and  _71
REMARK   34  A    between atoms: _74  and  _76
REMARK   35  A    between atoms: _76  and  _77
REMARK   36  A    between atoms: _76  and  _79
REMARK   37  A    between atoms: _79  and  _80
REMARK   38  A    between atoms: _80  and  _81
REMARK   39  A    between atoms: _81  and  _82
REMARK   40  A    between atoms: _92  and  _93
REMARK   41  A    between atoms: _99  and  _100
REMARK   42  A    between atoms: _105  and  _107
REMARK   43  A    between atoms: _107  and  _108
REMARK   44  A    between atoms: _110  and  _112
REMARK   45  A    between atoms: _112  and  _113
REMARK   46  A    between atoms: _112  and  _115
REMARK   47  A    between atoms: _115  and  _116
REMARK   48  A    between atoms: _118  and  _120
REMARK   49  A    between atoms: _120  and  _121
REMARK   50  A    between atoms: _120  and  _123
REMARK   51  A    between atoms: _123  and  _124
REMARK   52  A    between atoms: _127  and  _129
REMARK   53  A    between atoms: _129  and  _130
REMARK   54  A    between atoms: _133  and  _135
REMARK   55  A    between atoms: _135  and  _136
REMARK   56  A    between atoms: _135  and  _138
REMARK   57  A    between atoms: _138  and  _139
REMARK   58  A    between atoms: _142  and  _143
REMARK   59  A    between atoms: _148  and  _150
REMARK   60  A    between atoms: _150  and  _151
REMARK   61  A    between atoms: _153  and  _155
REMARK   62  A    between atoms: _155  and  _156
REMARK   63  A    between atoms: _155  and  _158
REMARK   64  A    between atoms: _158  and  _159
REMARK   65  A    between atoms: _162  and  _164
REMARK   66  A    between atoms: _164  and  _165
REMARK   67  A    between atoms: _168  and  _170
REMARK   68  A    between atoms: _170  and  _171
REMARK   69  A    between atoms: _170  and  _173
REMARK   70  A    between atoms: _173  and  _174
REMARK   71  A    between atoms: _179  and  _181
REMARK   72  A    between atoms: _181  and  _182
REMARK   73  A    between atoms: _181  and  _184
REMARK   74  A    between atoms: _184  and  _185
REMARK   75  A    between atoms: _187  and  _189
REMARK   76  A    between atoms: _189  and  _190
REMARK   77  A    between atoms: _189  and  _192
REMARK   78  A    between atoms: _192  and  _193
REMARK   79  A    between atoms: _193  and  _194
REMARK   80  A    between atoms: _194  and  _195
REMARK   81  A    between atoms: _195  and  _196
REMARK   82  A    between atoms: _200  and  _202
REMARK   83  A    between atoms: _202  and  _203
REMARK   84  A    between atoms: _202  and  _205
REMARK   85  A    between atoms: _205  and  _206
REMARK   86  A    between atoms: _211  and  _213
REMARK   87  A    between atoms: _213  and  _214
REMARK   88  A    between atoms: _213  and  _216
REMARK   89  A    between atoms: _216  and  _217
REMARK   90  A    between atoms: _219  and  _221
REMARK   91  A    between atoms: _221  and  _222
REMARK   92  A    between atoms: _221  and  _224
REMARK   93  A    between atoms: _224  and  _225
REMARK   94  A    between atoms: _227  and  _229
REMARK   95  A    between atoms: _229  and  _230
REMARK   96  A    between atoms: _229  and  _232
REMARK   97  A    between atoms: _232  and  _233
REMARK   98  A    between atoms: _239  and  _241
REMARK   99  A    between atoms: _241  and  _242
REMARK  100  A    between atoms: _241  and  _244
REMARK  101  A    between atoms: _244  and  _245
REMARK  102  A    between atoms: _245  and  _246
REMARK  103  A    between atoms: _251  and  _253
REMARK  104  A    between atoms: _253  and  _254
REMARK  105  A    between atoms: _253  and  _256
REMARK  106  A    between atoms: _256  and  _257
REMARK  107  A    between atoms: _260  and  _262
REMARK  108  A    between atoms: _262  and  _263
REMARK  109  A    between atoms: _262  and  _265
REMARK  110  A    between atoms: _265  and  _266
REMARK  111  A    between atoms: _271  and  _273
REMARK  112  A    between atoms: _273  and  _274
REMARK  113  A    between atoms: _273  and  _276
REMARK  114  A    between atoms: _276  and  _277
REMARK  115  A    between atoms: _280  and  _282
REMARK  116  A    between atoms: _282  and  _283
REMARK  117  A    between atoms: _282  and  _285
REMARK  118  A    between atoms: _285  and  _286
REMARK  119  A    between atoms: _286  and  _287
REMARK  120  A    between atoms: _287  and  _288
REMARK  121  A    between atoms: _297  and  _299
REMARK  122  A    between atoms: _299  and  _300
REMARK  123  A    between atoms: _299  and  _306
REMARK  124  A    between atoms: _300  and  _301
REMARK  125  A    between atoms: _301  and  _302
REMARK  126  A    between atoms: _302  and  _303
REMARK  127  A    between atoms: _303  and  _304
REMARK  128  A    between atoms: _311  and  _313
REMARK  129  A    between atoms: _313  and  _314
REMARK  130  A    between atoms: _313  and  _316
REMARK  131  A    between atoms: _316  and  _317
REMARK  132  A    between atoms: _319  and  _321
REMARK  133  A    between atoms: _321  and  _322
REMARK  134  A    between atoms: _321  and  _324
REMARK  135  A    between atoms: _324  and  _325
REMARK  136  A    between atoms: _325  and  _326
REMARK  137  A    between atoms: _326  and  _327
REMARK  138  A    between atoms: _327  and  _328
REMARK  139  A    between atoms: _332  and  _334
REMARK  140  A    between atoms: _334  and  _335
REMARK  141  A    between atoms: _338  and  _340
REMARK  142  A    between atoms: _340  and  _341
REMARK  143  A    between atoms: _340  and  _343
REMARK  144  A    between atoms: _343  and  _344
REMARK  145  A    between atoms: _347  and  _349
REMARK  146  A    between atoms: _349  and  _350
REMARK  147  A    between atoms: _349  and  _352
REMARK  148  A    between atoms: _352  and  _353
REMARK  149  A    between atoms: _358  and  _360
REMARK  150  A    between atoms: _360  and  _361
REMARK  151  A    between atoms: _360  and  _363
REMARK  152  A    between atoms: _363  and  _364
REMARK  153  A    between atoms: _367  and  _369
REMARK  154  A    between atoms: _369  and  _370
REMARK  155  A    between atoms: _372  and  _374
REMARK  156  A    between atoms: _374  and  _375
REMARK  157  A    between atoms: _374  and  _377
REMARK  158  A    between atoms: _377  and  _378
REMARK  159  A    between atoms: _378  and  _379
REMARK  160  A    between atoms: _379  and  _380
REMARK  161  A    between atoms: _380  and  _381
REMARK  162  A    between atoms: _386  and  _387
REMARK  163  A    between atoms: _392  and  _394
REMARK  164  A    between atoms: _394  and  _395
REMARK  165  A    between atoms: _398  and  _400
REMARK  166  A    between atoms: _400  and  _401
REMARK  167  A    between atoms: _400  and  _403
REMARK  168  A    between atoms: _405  and  _407
REMARK  169  A    between atoms: _407  and  _408
REMARK  170  A    between atoms: _411  and  _413
REMARK  171  A    between atoms: _413  and  _414
REMARK  172  A    between atoms: _413  and  _416
REMARK  173  A    between atoms: _416  and  _417
REMARK  174  A    between atoms: _419  and  _421
REMARK  175  A    between atoms: _421  and  _422
REMARK  176  A    between atoms: _421  and  _424
REMARK  177  A    between atoms: _424  and  _425
REMARK  178  A    between atoms: _428  and  _430
REMARK  179  A    between atoms: _430  and  _431
REMARK  180  A    between atoms: _430  and  _433
REMARK  181  A    between atoms: _433  and  _434
REMARK  182  A    between atoms: _437  and  _439
REMARK  183  A    between atoms: _439  and  _440
REMARK  184  A    between atoms: _439  and  _442
REMARK  185  A    between atoms: _442  and  _443
REMARK  186  A    between atoms: _443  and  _444
REMARK  187  A    between atoms: _449  and  _451
REMARK  188  A    between atoms: _451  and  _452
REMARK  189  A    between atoms: _451  and  _454
REMARK  190  A    between atoms: _454  and  _455
REMARK  191  A    between atoms: _461  and  _463
REMARK  192  A    between atoms: _463  and  _464
REMARK  193  A    between atoms: _463  and  _466
REMARK  194  A    between atoms: _466  and  _467
REMARK  195  A    between atoms: _467  and  _468
REMARK  196  A    between atoms: _468  and  _469
REMARK  197  A    between atoms: _469  and  _470
REMARK  198  A    between atoms: _474  and  _476
REMARK  199  A    between atoms: _476  and  _477
REMARK  200  A    between atoms: _476  and  _479
REMARK  201  A    between atoms: _479  and  _480
REMARK  202  A    between atoms: _485  and  _487
REMARK  203  A    between atoms: _487  and  _488
REMARK  204  A    between atoms: _487  and  _490
REMARK  205  A    between atoms: _490  and  _491
REMARK  206  A    between atoms: _497  and  _499
REMARK  207  A    between atoms: _499  and  _500
REMARK  208  A    between atoms: _499  and  _502
REMARK  209  A    between atoms: _502  and  _503
REMARK  210  A    between atoms: _503  and  _504
REMARK  211  A    between atoms: _507  and  _509
REMARK  212  A    between atoms: _509  and  _510
REMARK  213  A    between atoms: _509  and  _512
REMARK  214  A    between atoms: _512  and  _513
REMARK  215  A    between atoms: _513  and  _514
REMARK  216  A    between atoms: _519  and  _521
REMARK  217  A    between atoms: _521  and  _522
REMARK  218  A    between atoms: _521  and  _524
REMARK  219  A    between atoms: _524  and  _525
REMARK  220  A    between atoms: _525  and  _526
REMARK  221  A    between atoms: _526  and  _527
REMARK  222  A    between atoms: _536  and  _538
REMARK  223  A    between atoms: _538  and  _539
REMARK                            x       y       z     vdW  Elec       q    Type
REMARK                         _______ _______ _______ _____ _____    ______ ____
ROOT
ATOM      1  C   UNK     1      21.513 -15.488  13.165  0.00  0.00    +0.004 C 
ENDROOT
BRANCH   1   2
ATOM      2  C   UNK     1      20.969 -16.667  12.392  0.00  0.00    +0.025 C 
BRANCH   2   3
ATOM      3  C   UNK     1      19.586 -16.387  11.854  0.00  0.00    +0.133 C 
BRANCH   3   4
ATOM      4  N   UNK     1      18.601 -16.474  12.947  0.00  0.00    -0.239 NA
ATOM      5  H   UNK     1      18.895 -16.844  13.874  0.00  0.00    +0.142 HD
ENDBRANCH   3   4
BRANCH   3   6
ATOM      6  C   UNK     1      19.231 -17.344  10.683  0.00  0.00    +0.224 C 
ATOM      7  O   UNK     1      19.402 -16.991   9.523  0.00  0.00    -0.287 OA
ENDBRANCH   3   6
ENDBRANCH   2   3
ENDBRANCH   1   2
BRANCH   1   8
ATOM      8  C   UNK     1      22.962 -15.764  13.466  0.00  0.00    +0.021 C 
BRANCH   8   9
ATOM      9  C   UNK     1      23.642 -14.563  14.198  0.00  0.00    +0.093 C 
BRANCH   9  10
ATOM     10  N   UNK     1      23.279 -13.196  13.752  0.00  0.00    -0.268 N 
ATOM     11  C   UNK     1      23.409 -12.062  14.498  0.00  0.00    +0.444 C 
ATOM     12  O   UNK     1      23.879 -12.059  15.658  0.00  0.00    -0.223 OA
ATOM     13  O   UNK     1      23.080 -10.950  14.025  0.00  0.00    -0.223 OA
ATOM     14  H   UNK     1      22.894 -13.094  12.791  0.00  0.00    +0.153 HD
ENDBRANCH   9  10
ENDBRANCH   8   9
ENDBRANCH   1   8
TORSDOF 7
REMARK  Name = ../refined-set-2016/2jfh/2jfh_pocket.pdb
REMARK  223 active torsions:
REMARK  status: ('A' for Active; 'I' for Inactive)
REMARK    1  A    between atoms: _1  and  _3
REMARK    2  A    between atoms: _3  and  _4
REMARK    3  A    between atoms: _3  and  _6
REMARK    4  A    between atoms: _6  and  _7
REMARK    5  A    between atoms: _10  and  _12
REMARK    6  A    between atoms: _12  and  _13
REMARK    7  A    between atoms: _12  and  _15
REMARK    8  A    between atoms: _15  and  _16
REMARK    9  A    between atoms: _19  and  _21
REMARK   10  A    between atoms: _21  and  _22
REMARK   11  A    between atoms: _24  and  _26
REMARK   12  A    between atoms: _26  and  _27
REMARK   13  A    between atoms: _26  and  _29
REMARK   14  A    between atoms: _29  and  _30
REMARK   15  A    between atoms: _33  and  _35
REMARK   16  A    between atoms: _35  and  _36
REMARK   17  A    between atoms: _38  and  _40
REMARK   18  A    between atoms: _40  and  _41
REMARK   19  A    between atoms: _40  and  _43
REMARK   20  A    between atoms: _43  and  _44
REMARK   21  A    between atoms: _47  and  _49
REMARK   22  A    between atoms: _49  and  _50
REMARK   23  A    between atoms: _49  and  _52
REMARK   24  A    between atoms: _52  and  _53
REMARK   25  A    between atoms: _53  and  _54
REMARK   26  A    between atoms: _56  and  _58
REMARK   27  A    between atoms: _58  and  _59
REMARK   28  A    between atoms: _58  and  _61
REMARK   29  A    between atoms: _61  and  _62
REMARK   30  A    between atoms: _65  and  _67
REMARK   31  A    between atoms: _67  and  _68
REMARK   32  A    between atoms: _67  and  _70
REMARK   33  A    between atoms: _70  and  _71
REMARK   34  A    between atoms: _74  and  _76
REMARK   35  A    between atoms: _76  and  _77
REMARK   36  A    between atoms: _76  and  _79
REMARK   37  A    between atoms: _79  and  _80
REMARK   38  A    between atoms: _80  and  _81
REMARK   39  A    between atoms: _81  and  _82
REMARK   40  A    between atoms: _92  and  _93
REMARK   41  A    between atoms: _99  and  _100
REMARK   42  A    between atoms: _105  and  _107
REMARK   43  A    between atoms: _107  and  _108
REMARK   44  A    between atoms: _110  and  _112
REMARK   45  A    between atoms: _112  and  _113
REMARK   46  A    between atoms: _112  and  _115
REMARK   47  A    between atoms: _115  and  _116
REMARK   48  A    between atoms: _118  and  _120
REMARK   49  A    between atoms: _120  and  _121
REMARK   50  A    between atoms: _120  and  _123
REMARK   51  A    between atoms: _123  and  _124
REMARK   52  A    between atoms: _127  and  _129
REMARK   53  A    between atoms: _129  and  _130
REMARK   54  A    between atoms: _133  and  _135
REMARK   55  A    between atoms: _135  and  _136
REMARK   56  A    between atoms: _135  and  _138
REMARK   57  A    between atoms: _138  and  _139
REMARK   58  A    between atoms: _142  and  _143
REMARK   59  A    between atoms: _148  and  _150
REMARK   60  A    between atoms: _150  and  _151
REMARK   61  A    between atoms: _153  and  _155
REMARK   62  A    between atoms: _155  and  _156
REMARK   63  A    between atoms: _155  and  _158
REMARK   64  A    between atoms: _158  and  _159
REMARK   65  A    between atoms: _162  and  _164
REMARK   66  A    between atoms: _164  and  _165
REMARK   67  A    between atoms: _168  and  _170
REMARK   68  A    between atoms: _170  and  _171
REMARK   69  A    between atoms: _170  and  _173
REMARK   70  A    between atoms: _173  and  _174
REMARK   71  A    between atoms: _179  and  _181
REMARK   72  A    between atoms: _181  and  _182
REMARK   73  A    between atoms: _181  and  _184
REMARK   74  A    between atoms: _184  and  _185
REMARK   75  A    between atoms: _187  and  _189
REMARK   76  A    between atoms: _189  and  _190
REMARK   77  A    between atoms: _189  and  _192
REMARK   78  A    between atoms: _192  and  _193
REMARK   79  A    between atoms: _193  and  _194
REMARK   80  A    between atoms: _194  and  _195
REMARK   81  A    between atoms: _195  and  _196
REMARK   82  A    between atoms: _200  and  _202
REMARK   83  A    between atoms: _202  and  _203
REMARK   84  A    between atoms: _202  and  _205
REMARK   85  A    between atoms: _205  and  _206
REMARK   86  A    between atoms: _211  and  _213
REMARK   87  A    between atoms: _213  and  _214
REMARK   88  A    between atoms: _213  and  _216
REMARK   89  A    between atoms: _216  and  _217
REMARK   90  A    between atoms: _219  and  _221
REMARK   91  A    between atoms: _221  and  _222
REMARK   92  A    between atoms: _221  and  _224
REMARK   93  A    between atoms: _224  and  _225
REMARK   94  A    between atoms: _227  and  _229
REMARK   95  A    between atoms: _229  and  _230
REMARK   96  A    between atoms: _229  and  _232
REMARK   97  A    between atoms: _232  and  _233
REMARK   98  A    between atoms: _239  and  _241
REMARK   99  A    between atoms: _241  and  _242
REMARK  100  A    between atoms: _241  and  _244
REMARK  101  A    between atoms: _244  and  _245
REMARK  102  A    between atoms: _245  and  _246
REMARK  103  A    between atoms: _251  and  _253
REMARK  104  A    between atoms: _253  and  _254
REMARK  105  A    between atoms: _253  and  _256
REMARK  106  A    between atoms: _256  and  _257
REMARK  107  A    between atoms: _260  and  _262
REMARK  108  A    between atoms: _262  and  _263
REMARK  109  A    between atoms: _262  and  _265
REMARK  110  A    between atoms: _265  and  _266
REMARK  111  A    between atoms: _271  and  _273
REMARK  112  A    between atoms: _273  and  _274
REMARK  113  A    between atoms: _273  and  _276
REMARK  114  A    between atoms: _276  and  _277
REMARK  115  A    between atoms: _280  and  _282
REMARK  116  A    between atoms: _282  and  _283
REMARK  117  A    between atoms: _282  and  _285
REMARK  118  A    between atoms: _285  and  _286
REMARK  119  A    between atoms: _286  and  _287
REMARK  120  A    between atoms: _287  and  _288
REMARK  121  A    between atoms: _297  and  _299
REMARK  122  A    between atoms: _299  and  _300
REMARK  123  A    between atoms: _299  and  _306
REMARK  124  A    between atoms: _300  and  _301
REMARK  125  A    between atoms: _301  and  _302
REMARK  126  A    between atoms: _302  and  _303
REMARK  127  A    between atoms: _303  and  _304
REMARK  128  A    between atoms: _311  and  _313
REMARK  129  A    between atoms: _313  and  _314
REMARK  130  A    between atoms: _313  and  _316
REMARK  131  A    between atoms: _316  and  _317
REMARK  132  A    between atoms: _319  and  _321
REMARK  133  A    between atoms: _321  and  _322
REMARK  134  A    between atoms: _321  and  _324
REMARK  135  A    between atoms: _324  and  _325
REMARK  136  A    between atoms: _325  and  _326
REMARK  137  A    between atoms: _326  and  _327
REMARK  138  A    between atoms: _327  and  _328
REMARK  139  A    between atoms: _332  and  _334
REMARK  140  A    between atoms: _334  and  _335
REMARK  141  A    between atoms: _338  and  _340
REMARK  142  A    between atoms: _340  and  _341
REMARK  143  A    between atoms: _340  and  _343
REMARK  144  A    between atoms: _343  and  _344
REMARK  145  A    between atoms: _347  and  _349
REMARK  146  A    between atoms: _349  and  _350
REMARK  147  A    between atoms: _349  and  _352
REMARK  148  A    between atoms: _352  and  _353
REMARK  149  A    between atoms: _358  and  _360
REMARK  150  A    between atoms: _360  and  _361
REMARK  151  A    between atoms: _360  and  _363
REMARK  152  A    between atoms: _363  and  _364
REMARK  153  A    between atoms: _367  and  _369
REMARK  154  A    between atoms: _369  and  _370
REMARK  155  A    between atoms: _372  and  _374
REMARK  156  A    between atoms: _374  and  _375
REMARK  157  A    between atoms: _374  and  _377
REMARK  158  A    between atoms: _377  and  _378
REMARK  159  A    between atoms: _378  and  _379
REMARK  160  A    between atoms: _379  and  _380
REMARK  161  A    between atoms: _380  and  _381
REMARK  162  A    between atoms: _386  and  _387
REMARK  163  A    between atoms: _392  and  _394
REMARK  164  A    between atoms: _394  and  _395
REMARK  165  A    between atoms: _398  and  _400
REMARK  166  A    between atoms: _400  and  _401
REMARK  167  A    between atoms: _400  and  _403
REMARK  168  A    between atoms: _405  and  _407
REMARK  169  A    between atoms: _407  and  _408
REMARK  170  A    between atoms: _411  and  _413
REMARK  171  A    between atoms: _413  and  _414
REMARK  172  A    between atoms: _413  and  _416
REMARK  173  A    between atoms: _416  and  _417
REMARK  174  A    between atoms: _419  and  _421
REMARK  175  A    between atoms: _421  and  _422
REMARK  176  A    between atoms: _421  and  _424
REMARK  177  A    between atoms: _424  and  _425
REMARK  178  A    between atoms: _428  and  _430
REMARK  179  A    between atoms: _430  and  _431
REMARK  180  A    between atoms: _430  and  _433
REMARK  181  A    between atoms: _433  and  _434
REMARK  182  A    between atoms: _437  and  _439
REMARK  183  A    between atoms: _439  and  _440
REMARK  184  A    between atoms: _439  and  _442
REMARK  185  A    between atoms: _442  and  _443
REMARK  186  A    between atoms: _443  and  _444
REMARK  187  A    between atoms: _449  and  _451
REMARK  188  A    between atoms: _451  and  _452
REMARK  189  A    between atoms: _451  and  _454
REMARK  190  A    between atoms: _454  and  _455
REMARK  191  A    between atoms: _461  and  _463
REMARK  192  A    between atoms: _463  and  _464
REMARK  193  A    between atoms: _463  and  _466
REMARK  194  A    between atoms: _466  and  _467
REMARK  195  A    between atoms: _467  and  _468
REMARK  196  A    between atoms: _468  and  _469
REMARK  197  A    between atoms: _469  and  _470
REMARK  198  A    between atoms: _474  and  _476
REMARK  199  A    between atoms: _476  and  _477
REMARK  200  A    between atoms: _476  and  _479
REMARK  201  A    between atoms: _479  and  _480
REMARK  202  A    between atoms: _485  and  _487
REMARK  203  A    between atoms: _487  and  _488
REMARK  204  A    between atoms: _487  and  _490
REMARK  205  A    between atoms: _490  and  _491
REMARK  206  A    between atoms: _497  and  _499
REMARK  207  A    between atoms: _499  and  _500
REMARK  208  A    between atoms: _499  and  _502
REMARK  209  A    between atoms: _502  and  _503
REMARK  210  A    between atoms: _503  and  _504
REMARK  211  A    between atoms: _507  and  _509
REMARK  212  A    between atoms: _509  and  _510
REMARK  213  A    between atoms: _509  and  _512
REMARK  214  A    between atoms: _512  and  _513
REMARK  215  A    between atoms: _513  and  _514
REMARK  216  A    between atoms: _519  and  _521
REMARK  217  A    between atoms: _521  and  _522
REMARK  218  A    between atoms: _521  and  _524
REMARK  219  A    between atoms: _524  and  _525
REMARK  220  A    between atoms: _525  and  _526
REMARK  221  A    between atoms: _526  and  _527
REMARK  222  A    between atoms: _536  and  _538
REMARK  223  A    between atoms: _538  and  _539
REMARK                            x       y       z     vdW  Elec       q    Type
REMARK                         _______ _______ _______ _____ _____    ______ ____
ROOT
ATOM      1  CA  ALA A   3      34.303  -6.863  19.212  0.00  0.00    +0.149 C 
ATOM      2  CB  ALA A   3      35.651  -7.258  19.781  0.00  0.00    +0.031 C 
ENDROOT
BRANCH   1   3
ATOM      3  C   ALA A   3      33.258  -6.716  20.332  0.00  0.00    +0.241 C 
ATOM      4  O   ALA A   3      33.567  -6.392  21.470  0.00  0.00    -0.273 OA
ATOM      5  N   THR A   4      32.012  -6.954  19.987  0.00  0.00    -0.295 N 
ATOM      6  H   THR A   4      31.802  -7.314  19.034  0.00  0.00    +0.150 HD
BRANCH   5   7
ATOM      7  CA  THR A   4      30.911  -6.716  20.935  0.00  0.00    +0.176 C 
BRANCH   7   8
ATOM      8  C   THR A   4      30.389  -8.021  21.531  0.00  0.00    +0.243 C 
ATOM      9  O   THR A   4      29.371  -8.030  22.208  0.00  0.00    -0.273 OA
ATOM     10  N   ASN A   5      31.069  -9.135  21.242  0.00  0.00    -0.298 N 
ATOM     11  H   ASN A   5      31.878  -9.086  20.590  0.00  0.00    +0.150 HD
BRANCH  10  12
ATOM     12  CA  ASN A   5      30.690 -10.437  21.834  0.00  0.00    +0.146 C 
BRANCH  12  13
ATOM     13  C   ASN A   5      31.934 -11.257  22.086  0.00  0.00    +0.227 C 
ATOM     14  O   ASN A   5      33.045 -10.900  21.621  0.00  0.00    -0.286 OA
ENDBRANCH  12  13
BRANCH  12  15
ATOM     15  CB  ASN A   5      29.632 -11.182  20.986  0.00  0.00    +0.112 C 
BRANCH  15  16
ATOM     16  CG  ASN A   5      30.120 -11.545  19.553  0.00  0.00    +0.222 C 
ATOM     17  OD1 ASN A   5      31.248 -11.996  19.339  0.00  0.00    -0.275 OA
ATOM     18  ND2 ASN A   5      29.230 -11.409  18.594  0.00  0.00    -0.329 N 
ATOM     19 HD21 ASN A   5      28.288 -11.025  18.810  0.00  0.00    +0.145 HD
ATOM     20 HD22 ASN A   5      29.469 -11.685  17.620  0.00  0.00    +0.145 HD
ENDBRANCH  15  16
ENDBRANCH  12  15
ENDBRANCH  10  12
ENDBRANCH   7   8
BRANCH   7  21
ATOM     21  CB  THR A   4      29.781  -5.937  20.205  0.00  0.00    +0.137 C 
ATOM     22  CG2 THR A   4      30.251  -4.552  19.836  0.00  0.00    +0.034 C 
BRANCH  21  23
ATOM     23  OG1 THR A   4      29.429  -6.621  18.993  0.00  0.00    -0.382 OA
ATOM     24  HG1 THR A   4      30.223  -6.677  18.405  0.00  0.00    +0.210 HD
ENDBRANCH  21  23
ENDBRANCH   7  21
ENDBRANCH   5   7
ENDBRANCH   1   3
BRANCH   1  26
ATOM     25  C   LYS A   2      33.494  -5.191  17.630  0.00  0.00    +0.241 C 
ATOM     26  N   ALA A   3      34.424  -5.627  18.466  0.00  0.00    -0.297 N 
ATOM     27  H   ALA A   3      35.283  -5.054  18.593  0.00  0.00    +0.150 HD
ATOM     28  O   LYS A   2      32.555  -5.895  17.318  0.00  0.00    -0.273 OA
BRANCH  25  29
ATOM     29  CA  LYS A   2      33.678  -3.775  17.014  0.00  0.00    +0.149 C 
BRANCH  29  32
ATOM     30  C   SER A   1      34.618  -2.535  18.899  0.00  0.00    +0.241 C 
ATOM     31  O   SER A   1      33.610  -2.751  19.577  0.00  0.00    -0.274 OA
ATOM     32  N   LYS A   2      34.754  -3.014  17.663  0.00  0.00    -0.297 N 
ATOM     33  H   LYS A   2      35.641  -2.845  17.147  0.00  0.00    +0.150 HD
BRANCH  30  34
ATOM     34  CA  SER A   1      35.828  -1.778  19.525  0.00  0.00    +0.174 C 
BRANCH  34  35
ATOM     35  N   SER A   1      37.142  -2.127  18.908  0.00  0.00    -0.236 NA
ATOM     36  H   SER A   1      37.734  -1.361  18.527  0.00  0.00    +0.142 HD
ENDBRANCH  34  35
BRANCH  34  37
ATOM     37  CB  SER A   1      35.578  -0.281  19.510  0.00  0.00    +0.163 C 
BRANCH  37  38
ATOM     38  OG  SER A   1      34.344   0.027  20.168  0.00  0.00    -0.380 OA
ATOM     39  H   SER A   1      34.197   1.006  20.149  0.00  0.00    +0.211 HD
ENDBRANCH  37  38
ENDBRANCH  34  37
ENDBRANCH  30  34
ENDBRANCH  29  32
BRANCH  29  40
ATOM     40  CB  LYS A   2      33.941  -3.832  15.495  0.00  0.00    +0.029 C 
BRANCH  40  41
ATOM     41  CG  LYS A   2      32.706  -4.042  14.668  0.00  0.00    +0.000 C 
BRANCH  41  42
ATOM     42  CD  LYS A   2      32.760  -3.244  13.380  0.00  0.00    -0.024 C 
BRANCH  42  43
ATOM     43  CE  LYS A   2      31.444  -3.332  12.608  0.00  0.00    -0.086 C 
BRANCH  43  44
ATOM     44  NZ  LYS A   2      30.728  -4.698  12.696  0.00  0.00    +0.380 N 
ATOM     45  HZ1 LYS A   2      30.507  -4.909  13.690  0.00  0.00    -0.089 HD
ATOM     46  HZ2 LYS A   2      31.349  -5.439  12.314  0.00  0.00    -0.089 HD
ATOM     47  HZ3 LYS A   2      29.848  -4.663  12.143  0.00  0.00    -0.089 HD
ENDBRANCH  43  44
ENDBRANCH  42  43
ENDBRANCH  41  42
ENDBRANCH  40  41
ENDBRANCH  29  40
ENDBRANCH  25  29
ENDBRANCH   1  26
TORSDOF 21
REMARK  Name = ../refined-set-2016/2jfh/2jfh_pocket.pdb
REMARK  223 active torsions:
REMARK  status: ('A' for Active; 'I' for Inactive)
REMARK    1  A    between atoms: _1  and  _3
REMARK    2  A    between atoms: _3  and  _4
REMARK    3  A    between atoms: _3  and  _6
REMARK    4  A    between atoms: _6  and  _7
REMARK    5  A    between atoms: _10  and  _12
REMARK    6  A    between atoms: _12  and  _13
REMARK    7  A    between atoms: _12  and  _15
REMARK    8  A    between atoms: _15  and  _16
REMARK    9  A    between atoms: _19  and  _21
REMARK   10  A    between atoms: _21  and  _22
REMARK   11  A    between atoms: _24  and  _26
REMARK   12  A    between atoms: _26  and  _27
REMARK   13  A    between atoms: _26  and  _29
REMARK   14  A    between atoms: _29  and  _30
REMARK   15  A    between atoms: _33  and  _35
REMARK   16  A    between atoms: _35  and  _36
REMARK   17  A    between atoms: _38  and  _40
REMARK   18  A    between atoms: _40  and  _41
REMARK   19  A    between atoms: _40  and  _43
REMARK   20  A    between atoms: _43  and  _44
REMARK   21  A    between atoms: _47  and  _49
REMARK   22  A    between atoms: _49  and  _50
REMARK   23  A    between atoms: _49  and  _52
REMARK   24  A    between atoms: _52  and  _53
REMARK   25  A    between atoms: _53  and  _54
REMARK   26  A    between atoms: _56  and  _58
REMARK   27  A    between atoms: _58  and  _59
REMARK   28  A    between atoms: _58  and  _61
REMARK   29  A    between atoms: _61  and  _62
REMARK   30  A    between atoms: _65  and  _67
REMARK   31  A    between atoms: _67  and  _68
REMARK   32  A    between atoms: _67  and  _70
REMARK   33  A    between atoms: _70  and  _71
REMARK   34  A    between atoms: _74  and  _76
REMARK   35  A    between atoms: _76  and  _77
REMARK   36  A    between atoms: _76  and  _79
REMARK   37  A    between atoms: _79  and  _80
REMARK   38  A    between atoms: _80  and  _81
REMARK   39  A    between atoms: _81  and  _82
REMARK   40  A    between atoms: _92  and  _93
REMARK   41  A    between atoms: _99  and  _100
REMARK   42  A    between atoms: _105  and  _107
REMARK   43  A    between atoms: _107  and  _108
REMARK   44  A    between atoms: _110  and  _112
REMARK   45  A    between atoms: _112  and  _113
REMARK   46  A    between atoms: _112  and  _115
REMARK   47  A    between atoms: _115  and  _116
REMARK   48  A    between atoms: _118  and  _120
REMARK   49  A    between atoms: _120  and  _121
REMARK   50  A    between atoms: _120  and  _123
REMARK   51  A    between atoms: _123  and  _124
REMARK   52  A    between atoms: _127  and  _129
REMARK   53  A    between atoms: _129  and  _130
REMARK   54  A    between atoms: _133  and  _135
REMARK   55  A    between atoms: _135  and  _136
REMARK   56  A    between atoms: _135  and  _138
REMARK   57  A    between atoms: _138  and  _139
REMARK   58  A    between atoms: _142  and  _143
REMARK   59  A    between atoms: _148  and  _150
REMARK   60  A    between atoms: _150  and  _151
REMARK   61  A    between atoms: _153  and  _155
REMARK   62  A    between atoms: _155  and  _156
REMARK   63  A    between atoms: _155  and  _158
REMARK   64  A    between atoms: _158  and  _159
REMARK   65  A    between atoms: _162  and  _164
REMARK   66  A    between atoms: _164  and  _165
REMARK   67  A    between atoms: _168  and  _170
REMARK   68  A    between atoms: _170  and  _171
REMARK   69  A    between atoms: _170  and  _173
REMARK   70  A    between atoms: _173  and  _174
REMARK   71  A    between atoms: _179  and  _181
REMARK   72  A    between atoms: _181  and  _182
REMARK   73  A    between atoms: _181  and  _184
REMARK   74  A    between atoms: _184  and  _185
REMARK   75  A    between atoms: _187  and  _189
REMARK   76  A    between atoms: _189  and  _190
REMARK   77  A    between atoms: _189  and  _192
REMARK   78  A    between atoms: _192  and  _193
REMARK   79  A    between atoms: _193  and  _194
REMARK   80  A    between atoms: _194  and  _195
REMARK   81  A    between atoms: _195  and  _196
REMARK   82  A    between atoms: _200  and  _202
REMARK   83  A    between atoms: _202  and  _203
REMARK   84  A    between atoms: _202  and  _205
REMARK   85  A    between atoms: _205  and  _206
REMARK   86  A    between atoms: _211  and  _213
REMARK   87  A    between atoms: _213  and  _214
REMARK   88  A    between atoms: _213  and  _216
REMARK   89  A    between atoms: _216  and  _217
REMARK   90  A    between atoms: _219  and  _221
REMARK   91  A    between atoms: _221  and  _222
REMARK   92  A    between atoms: _221  and  _224
REMARK   93  A    between atoms: _224  and  _225
REMARK   94  A    between atoms: _227  and  _229
REMARK   95  A    between atoms: _229  and  _230
REMARK   96  A    between atoms: _229  and  _232
REMARK   97  A    between atoms: _232  and  _233
REMARK   98  A    between atoms: _239  and  _241
REMARK   99  A    between atoms: _241  and  _242
REMARK  100  A    between atoms: _241  and  _244
REMARK  101  A    between atoms: _244  and  _245
REMARK  102  A    between atoms: _245  and  _246
REMARK  103  A    between atoms: _251  and  _253
REMARK  104  A    between atoms: _253  and  _254
REMARK  105  A    between atoms: _253  and  _256
REMARK  106  A    between atoms: _256  and  _257
REMARK  107  A    between atoms: _260  and  _262
REMARK  108  A    between atoms: _262  and  _263
REMARK  109  A    between atoms: _262  and  _265
REMARK  110  A    between atoms: _265  and  _266
REMARK  111  A    between atoms: _271  and  _273
REMARK  112  A    between atoms: _273  and  _274
REMARK  113  A    between atoms: _273  and  _276
REMARK  114  A    between atoms: _276  and  _277
REMARK  115  A    between atoms: _280  and  _282
REMARK  116  A    between atoms: _282  and  _283
REMARK  117  A    between atoms: _282  and  _285
REMARK  118  A    between atoms: _285  and  _286
REMARK  119  A    between atoms: _286  and  _287
REMARK  120  A    between atoms: _287  and  _288
REMARK  121  A    between atoms: _297  and  _299
REMARK  122  A    between atoms: _299  and  _300
REMARK  123  A    between atoms: _299  and  _306
REMARK  124  A    between atoms: _300  and  _301
REMARK  125  A    between atoms: _301  and  _302
REMARK  126  A    between atoms: _302  and  _303
REMARK  127  A    between atoms: _303  and  _304
REMARK  128  A    between atoms: _311  and  _313
REMARK  129  A    between atoms: _313  and  _314
REMARK  130  A    between atoms: _313  and  _316
REMARK  131  A    between atoms: _316  and  _317
REMARK  132  A    between atoms: _319  and  _321
REMARK  133  A    between atoms: _321  and  _322
REMARK  134  A    between atoms: _321  and  _324
REMARK  135  A    between atoms: _324  and  _325
REMARK  136  A    between atoms: _325  and  _326
REMARK  137  A    between atoms: _326  and  _327
REMARK  138  A    between atoms: _327  and  _328
REMARK  139  A    between atoms: _332  and  _334
REMARK  140  A    between atoms: _334  and  _335
REMARK  141  A    between atoms: _338  and  _340
REMARK  142  A    between atoms: _340  and  _341
REMARK  143  A    between atoms: _340  and  _343
REMARK  144  A    between atoms: _343  and  _344
REMARK  145  A    between atoms: _347  and  _349
REMARK  146  A    between atoms: _349  and  _350
REMARK  147  A    between atoms: _349  and  _352
REMARK  148  A    between atoms: _352  and  _353
REMARK  149  A    between atoms: _358  and  _360
REMARK  150  A    between atoms: _360  and  _361
REMARK  151  A    between atoms: _360  and  _363
REMARK  152  A    between atoms: _363  and  _364
REMARK  153  A    between atoms: _367  and  _369
REMARK  154  A    between atoms: _369  and  _370
REMARK  155  A    between atoms: _372  and  _374
REMARK  156  A    between atoms: _374  and  _375
REMARK  157  A    between atoms: _374  and  _377
REMARK  158  A    between atoms: _377  and  _378
REMARK  159  A    between atoms: _378  and  _379
REMARK  160  A    between atoms: _379  and  _380
REMARK  161  A    between atoms: _380  and  _381
REMARK  162  A    between atoms: _386  and  _387
REMARK  163  A    between atoms: _392  and  _394
REMARK  164  A    between atoms: _394  and  _395
REMARK  165  A    between atoms: _398  and  _400
REMARK  166  A    between atoms: _400  and  _401
REMARK  167  A    between atoms: _400  and  _403
REMARK  168  A    between atoms: _405  and  _407
REMARK  169  A    between atoms: _407  and  _408
REMARK  170  A    between atoms: _411  and  _413
REMARK  171  A    between atoms: _413  and  _414
REMARK  172  A    between atoms: _413  and  _416
REMARK  173  A    between atoms: _416  and  _417
REMARK  174  A    between atoms: _419  and  _421
REMARK  175  A    between atoms: _421  and  _422
REMARK  176  A    between atoms: _421  and  _424
REMARK  177  A    between atoms: _424  and  _425
REMARK  178  A    between atoms: _428  and  _430
REMARK  179  A    between atoms: _430  and  _431
REMARK  180  A    between atoms: _430  and  _433
REMARK  181  A    between atoms: _433  and  _434
REMARK  182  A    between atoms: _437  and  _439
REMARK  183  A    between atoms: _439  and  _440
REMARK  184  A    between atoms: _439  and  _442
REMARK  185  A    between atoms: _442  and  _443
REMARK  186  A    between atoms: _443  and  _444
REMARK  187  A    between atoms: _449  and  _451
REMARK  188  A    between atoms: _451  and  _452
REMARK  189  A    between atoms: _451  and  _454
REMARK  190  A    between atoms: _454  and  _455
REMARK  191  A    between atoms: _461  and  _463
REMARK  192  A    between atoms: _463  and  _464
REMARK  193  A    between atoms: _463  and  _466
REMARK  194  A    between atoms: _466  and  _467
REMARK  195  A    between atoms: _467  and  _468
REMARK  196  A    between atoms: _468  and  _469
REMARK  197  A    between atoms: _469  and  _470
REMARK  198  A    between atoms: _474  and  _476
REMARK  199  A    between atoms: _476  and  _477
REMARK  200  A    between atoms: _476  and  _479
REMARK  201  A    between atoms: _479  and  _480
REMARK  202  A    between atoms: _485  and  _487
REMARK  203  A    between atoms: _487  and  _488
REMARK  204  A    between atoms: _487  and  _490
REMARK  205  A    between atoms: _490  and  _491
REMARK  206  A    between atoms: _497  and  _499
REMARK  207  A    between atoms: _499  and  _500
REMARK  208  A    between atoms: _499  and  _502
REMARK  209  A    between atoms: _502  and  _503
REMARK  210  A    between atoms: _503  and  _504
REMARK  211  A    between atoms: _507  and  _509
REMARK  212  A    between atoms: _509  and  _510
REMARK  213  A    between atoms: _509  and  _512
REMARK  214  A    between atoms: _512  and  _513
REMARK  215  A    between atoms: _513  and  _514
REMARK  216  A    between atoms: _519  and  _521
REMARK  217  A    between atoms: _521  and  _522
REMARK  218  A    between atoms: _521  and  _524
REMARK  219  A    between atoms: _524  and  _525
REMARK  220  A    between atoms: _525  and  _526
REMARK  221  A    between atoms: _526  and  _527
REMARK  222  A    between atoms: _536  and  _538
REMARK  223  A    between atoms: _538  and  _539
REMARK                            x       y       z     vdW  Elec       q    Type
REMARK                         _______ _______ _______ _____ _____    ______ ____
ROOT
ATOM      1  C   GLY A   2      26.715  -9.108  27.730  0.00  0.00    +0.243 C 
ATOM      2  N   LYS A   3      25.512  -8.545  27.907  0.00  0.00    -0.298 N 
ATOM      3  H   LYS A   3      25.456  -7.671  28.468  0.00  0.00    +0.150 HD
ATOM      4  O   GLY A   2      26.885 -10.189  27.146  0.00  0.00    -0.273 OA
ENDROOT
BRANCH   1   5
ATOM      5  CA  GLY A   2      27.916  -8.349  28.270  0.00  0.00    +0.176 C 
BRANCH   5   7
ATOM      6  C   ASP A   1      27.417  -5.947  28.005  0.00  0.00    +0.239 C 
ATOM      7  N   GLY A   2      27.693  -6.983  28.797  0.00  0.00    -0.296 N 
ATOM      8  H   GLY A   2      27.754  -6.826  29.823  0.00  0.00    +0.150 HD
ATOM      9  O   ASP A   1      27.289  -6.035  26.783  0.00  0.00    -0.274 OA
BRANCH   6  10
ATOM     10  CA  ASP A   1      27.275  -4.602  28.699  0.00  0.00    +0.156 C 
BRANCH  10  11
ATOM     11  N   ASP A   1      28.498  -3.805  28.439  0.00  0.00    -0.238 NA
ATOM     12  H   ASP A   1      28.598  -3.325  27.522  0.00  0.00    +0.142 HD
ENDBRANCH  10  11
BRANCH  10  13
ATOM     13  CB  ASP A   1      25.977  -3.854  28.214  0.00  0.00    +0.140 C 
BRANCH  13  14
ATOM     14  CG  ASP A   1      24.690  -4.706  28.424  0.00  0.00    +0.367 C 
ATOM     15  OD2 ASP A   1      24.746  -5.779  29.046  0.00  0.00    -0.246 OA
ATOM     16  OD1 ASP A   1      23.606  -4.297  28.005  0.00  0.00    -0.246 OA
ENDBRANCH  13  14
ENDBRANCH  10  13
ENDBRANCH   6  10
ENDBRANCH   5   7
ENDBRANCH   1   5
BRANCH   2  17
ATOM     17  CA  LYS A   3      24.264  -9.097  27.350  0.00  0.00    +0.137 C 
BRANCH  17  18
ATOM     18  C   LYS A   3      24.003 -10.512  27.873  0.00  0.00    +0.227 C 
ATOM     19  O   LYS A   3      23.562 -11.412  27.111  0.00  0.00    -0.286 OA
ENDBRANCH  17  18
BRANCH  17  20
ATOM     20  CB  LYS A   3      24.281  -9.051  25.809  0.00  0.00    +0.028 C 
BRANCH  20  21
ATOM     21  CG  LYS A   3      24.272  -7.613  25.234  0.00  0.00    -0.000 C 
BRANCH  21  22
ATOM     22  CD  LYS A   3      24.624  -7.644  23.773  0.00  0.00    -0.024 C 
BRANCH  22  23
ATOM     23  CE  LYS A   3      26.129  -7.821  23.623  0.00  0.00    -0.086 C 
BRANCH  23  24
ATOM     24  NZ  LYS A   3      26.564  -7.742  22.196  0.00  0.00    +0.380 N 
ATOM     25  HZ1 LYS A   3      27.595  -7.868  22.142  0.00  0.00    -0.089 HD
ATOM     26  HZ2 LYS A   3      26.306  -6.813  21.807  0.00  0.00    -0.089 HD
ATOM     27  HZ3 LYS A   3      26.093  -8.491  21.649  0.00  0.00    -0.089 HD
ENDBRANCH  23  24
ENDBRANCH  22  23
ENDBRANCH  21  22
ENDBRANCH  20  21
ENDBRANCH  17  20
ENDBRANCH   2  17
TORSDOF 13
REMARK  Name = ../refined-set-2016/2jfh/2jfh_pocket.pdb
REMARK  223 active torsions:
REMARK  status: ('A' for Active; 'I' for Inactive)
REMARK    1  A    between atoms: _1  and  _3
REMARK    2  A    between atoms: _3  and  _4
REMARK    3  A    between atoms: _3  and  _6
REMARK    4  A    between atoms: _6  and  _7
REMARK    5  A    between atoms: _10  and  _12
REMARK    6  A    between atoms: _12  and  _13
REMARK    7  A    between atoms: _12  and  _15
REMARK    8  A    between atoms: _15  and  _16
REMARK    9  A    between atoms: _19  and  _21
REMARK   10  A    between atoms: _21  and  _22
REMARK   11  A    between atoms: _24  and  _26
REMARK   12  A    between atoms: _26  and  _27
REMARK   13  A    between atoms: _26  and  _29
REMARK   14  A    between atoms: _29  and  _30
REMARK   15  A    between atoms: _33  and  _35
REMARK   16  A    between atoms: _35  and  _36
REMARK   17  A    between atoms: _38  and  _40
REMARK   18  A    between atoms: _40  and  _41
REMARK   19  A    between atoms: _40  and  _43
REMARK   20  A    between atoms: _43  and  _44
REMARK   21  A    between atoms: _47  and  _49
REMARK   22  A    between atoms: _49  and  _50
REMARK   23  A    between atoms: _49  and  _52
REMARK   24  A    between atoms: _52  and  _53
REMARK   25  A    between atoms: _53  and  _54
REMARK   26  A    between atoms: _56  and  _58
REMARK   27  A    between atoms: _58  and  _59
REMARK   28  A    between atoms: _58  and  _61
REMARK   29  A    between atoms: _61  and  _62
REMARK   30  A    between atoms: _65  and  _67
REMARK   31  A    between atoms: _67  and  _68
REMARK   32  A    between atoms: _67  and  _70
REMARK   33  A    between atoms: _70  and  _71
REMARK   34  A    between atoms: _74  and  _76
REMARK   35  A    between atoms: _76  and  _77
REMARK   36  A    between atoms: _76  and  _79
REMARK   37  A    between atoms: _79  and  _80
REMARK   38  A    between atoms: _80  and  _81
REMARK   39  A    between atoms: _81  and  _82
REMARK   40  A    between atoms: _92  and  _93
REMARK   41  A    between atoms: _99  and  _100
REMARK   42  A    between atoms: _105  and  _107
REMARK   43  A    between atoms: _107  and  _108
REMARK   44  A    between atoms: _110  and  _112
REMARK   45  A    between atoms: _112  and  _113
REMARK   46  A    between atoms: _112  and  _115
REMARK   47  A    between atoms: _115  and  _116
REMARK   48  A    between atoms: _118  and  _120
REMARK   49  A    between atoms: _120  and  _121
REMARK   50  A    between atoms: _120  and  _123
REMARK   51  A    between atoms: _123  and  _124
REMARK   52  A    between atoms: _127  and  _129
REMARK   53  A    between atoms: _129  and  _130
REMARK   54  A    between atoms: _133  and  _135
REMARK   55  A    between atoms: _135  and  _136
REMARK   56  A    between atoms: _135  and  _138
REMARK   57  A    between atoms: _138  and  _139
REMARK   58  A    between atoms: _142  and  _143
REMARK   59  A    between atoms: _148  and  _150
REMARK   60  A    between atoms: _150  and  _151
REMARK   61  A    between atoms: _153  and  _155
REMARK   62  A    between atoms: _155  and  _156
REMARK   63  A    between atoms: _155  and  _158
REMARK   64  A    between atoms: _158  and  _159
REMARK   65  A    between atoms: _162  and  _164
REMARK   66  A    between atoms: _164  and  _165
REMARK   67  A    between atoms: _168  and  _170
REMARK   68  A    between atoms: _170  and  _171
REMARK   69  A    between atoms: _170  and  _173
REMARK   70  A    between atoms: _173  and  _174
REMARK   71  A    between atoms: _179  and  _181
REMARK   72  A    between atoms: _181  and  _182
REMARK   73  A    between atoms: _181  and  _184
REMARK   74  A    between atoms: _184  and  _185
REMARK   75  A    between atoms: _187  and  _189
REMARK   76  A    between atoms: _189  and  _190
REMARK   77  A    between atoms: _189  and  _192
REMARK   78  A    between atoms: _192  and  _193
REMARK   79  A    between atoms: _193  and  _194
REMARK   80  A    between atoms: _194  and  _195
REMARK   81  A    between atoms: _195  and  _196
REMARK   82  A    between atoms: _200  and  _202
REMARK   83  A    between atoms: _202  and  _203
REMARK   84  A    between atoms: _202  and  _205
REMARK   85  A    between atoms: _205  and  _206
REMARK   86  A    between atoms: _211  and  _213
REMARK   87  A    between atoms: _213  and  _214
REMARK   88  A    between atoms: _213  and  _216
REMARK   89  A    between atoms: _216  and  _217
REMARK   90  A    between atoms: _219  and  _221
REMARK   91  A    between atoms: _221  and  _222
REMARK   92  A    between atoms: _221  and  _224
REMARK   93  A    between atoms: _224  and  _225
REMARK   94  A    between atoms: _227  and  _229
REMARK   95  A    between atoms: _229  and  _230
REMARK   96  A    between atoms: _229  and  _232
REMARK   97  A    between atoms: _232  and  _233
REMARK   98  A    between atoms: _239  and  _241
REMARK   99  A    between atoms: _241  and  _242
REMARK  100  A    between atoms: _241  and  _244
REMARK  101  A    between atoms: _244  and  _245
REMARK  102  A    between atoms: _245  and  _246
REMARK  103  A    between atoms: _251  and  _253
REMARK  104  A    between atoms: _253  and  _254
REMARK  105  A    between atoms: _253  and  _256
REMARK  106  A    between atoms: _256  and  _257
REMARK  107  A    between atoms: _260  and  _262
REMARK  108  A    between atoms: _262  and  _263
REMARK  109  A    between atoms: _262  and  _265
REMARK  110  A    between atoms: _265  and  _266
REMARK  111  A    between atoms: _271  and  _273
REMARK  112  A    between atoms: _273  and  _274
REMARK  113  A    between atoms: _273  and  _276
REMARK  114  A    between atoms: _276  and  _277
REMARK  115  A    between atoms: _280  and  _282
REMARK  116  A    between atoms: _282  and  _283
REMARK  117  A    between atoms: _282  and  _285
REMARK  118  A    between atoms: _285  and  _286
REMARK  119  A    between atoms: _286  and  _287
REMARK  120  A    between atoms: _287  and  _288
REMARK  121  A    between atoms: _297  and  _299
REMARK  122  A    between atoms: _299  and  _300
REMARK  123  A    between atoms: _299  and  _306
REMARK  124  A    between atoms: _300  and  _301
REMARK  125  A    between atoms: _301  and  _302
REMARK  126  A    between atoms: _302  and  _303
REMARK  127  A    between atoms: _303  and  _304
REMARK  128  A    between atoms: _311  and  _313
REMARK  129  A    between atoms: _313  and  _314
REMARK  130  A    between atoms: _313  and  _316
REMARK  131  A    between atoms: _316  and  _317
REMARK  132  A    between atoms: _319  and  _321
REMARK  133  A    between atoms: _321  and  _322
REMARK  134  A    between atoms: _321  and  _324
REMARK  135  A    between atoms: _324  and  _325
REMARK  136  A    between atoms: _325  and  _326
REMARK  137  A    between atoms: _326  and  _327
REMARK  138  A    between atoms: _327  and  _328
REMARK  139  A    between atoms: _332  and  _334
REMARK  140  A    between atoms: _334  and  _335
REMARK  141  A    between atoms: _338  and  _340
REMARK  142  A    between atoms: _340  and  _341
REMARK  143  A    between atoms: _340  and  _343
REMARK  144  A    between atoms: _343  and  _344
REMARK  145  A    between atoms: _347  and  _349
REMARK  146  A    between atoms: _349  and  _350
REMARK  147  A    between atoms: _349  and  _352
REMARK  148  A    between atoms: _352  and  _353
REMARK  149  A    between atoms: _358  and  _360
REMARK  150  A    between atoms: _360  and  _361
REMARK  151  A    between atoms: _360  and  _363
REMARK  152  A    between atoms: _363  and  _364
REMARK  153  A    between atoms: _367  and  _369
REMARK  154  A    between atoms: _369  and  _370
REMARK  155  A    between atoms: _372  and  _374
REMARK  156  A    between atoms: _374  and  _375
REMARK  157  A    between atoms: _374  and  _377
REMARK  158  A    between atoms: _377  and  _378
REMARK  159  A    between atoms: _378  and  _379
REMARK  160  A    between atoms: _379  and  _380
REMARK  161  A    between atoms: _380  and  _381
REMARK  162  A    between atoms: _386  and  _387
REMARK  163  A    between atoms: _392  and  _394
REMARK  164  A    between atoms: _394  and  _395
REMARK  165  A    between atoms: _398  and  _400
REMARK  166  A    between atoms: _400  and  _401
REMARK  167  A    between atoms: _400  and  _403
REMARK  168  A    between atoms: _405  and  _407
REMARK  169  A    between atoms: _407  and  _408
REMARK  170  A    between atoms: _411  and  _413
REMARK  171  A    between atoms: _413  and  _414
REMARK  172  A    between atoms: _413  and  _416
REMARK  173  A    between atoms: _416  and  _417
REMARK  174  A    between atoms: _419  and  _421
REMARK  175  A    between atoms: _421  and  _422
REMARK  176  A    between atoms: _421  and  _424
REMARK  177  A    between atoms: _424  and  _425
REMARK  178  A    between atoms: _428  and  _430
REMARK  179  A    between atoms: _430  and  _431
REMARK  180  A    between atoms: _430  and  _433
REMARK  181  A    between atoms: _433  and  _434
REMARK  182  A    between atoms: _437  and  _439
REMARK  183  A    between atoms: _439  and  _440
REMARK  184  A    between atoms: _439  and  _442
REMARK  185  A    between atoms: _442  and  _443
REMARK  186  A    between atoms: _443  and  _444
REMARK  187  A    between atoms: _449  and  _451
REMARK  188  A    between atoms: _451  and  _452
REMARK  189  A    between atoms: _451  and  _454
REMARK  190  A    between atoms: _454  and  _455
REMARK  191  A    between atoms: _461  and  _463
REMARK  192  A    between atoms: _463  and  _464
REMARK  193  A    between atoms: _463  and  _466
REMARK  194  A    between atoms: _466  and  _467
REMARK  195  A    between atoms: _467  and  _468
REMARK  196  A    between atoms: _468  and  _469
REMARK  197  A    between atoms: _469  and  _470
REMARK  198  A    between atoms: _474  and  _476
REMARK  199  A    between atoms: _476  and  _477
REMARK  200  A    between atoms: _476  and  _479
REMARK  201  A    between atoms: _479  and  _480
REMARK  202  A    between atoms: _485  and  _487
REMARK  203  A    between atoms: _487  and  _488
REMARK  204  A    between atoms: _487  and  _490
REMARK  205  A    between atoms: _490  and  _491
REMARK  206  A    between atoms: _497  and  _499
REMARK  207  A    between atoms: _499  and  _500
REMARK  208  A    between atoms: _499  and  _502
REMARK  209  A    between atoms: _502  and  _503
REMARK  210  A    between atoms: _503  and  _504
REMARK  211  A    between atoms: _507  and  _509
REMARK  212  A    between atoms: _509  and  _510
REMARK  213  A    between atoms: _509  and  _512
REMARK  214  A    between atoms: _512  and  _513
REMARK  215  A    between atoms: _513  and  _514
REMARK  216  A    between atoms: _519  and  _521
REMARK  217  A    between atoms: _521  and  _522
REMARK  218  A    between atoms: _521  and  _524
REMARK  219  A    between atoms: _524  and  _525
REMARK  220  A    between atoms: _525  and  _526
REMARK  221  A    between atoms: _526  and  _527
REMARK  222  A    between atoms: _536  and  _538
REMARK  223  A    between atoms: _538  and  _539
REMARK                            x       y       z     vdW  Elec       q    Type
REMARK                         _______ _______ _______ _____ _____    ______ ____
ROOT
ATOM      1  C   PHE A   9      27.465   5.124  23.889  0.00  0.00    +0.241 C 
ATOM      2  O   PHE A   9      26.499   4.378  24.160  0.00  0.00    -0.273 OA
ATOM      3  N   LYS A  10      27.514   5.941  22.835  0.00  0.00    -0.297 N 
ATOM      4  H   LYS A  10      28.352   6.544  22.710  0.00  0.00    +0.150 HD
ENDROOT
BRANCH   3   5
ATOM      5  CA  LYS A  10      26.436   6.022  21.848  0.00  0.00    +0.149 C 
BRANCH   5   6
ATOM      6  C   LYS A  10      26.336   4.750  21.036  0.00  0.00    +0.241 C 
ATOM      7  O   LYS A  10      25.237   4.284  20.735  0.00  0.00    -0.273 OA
ATOM      8  N   ASN A  11      27.507   4.192  20.699  0.00  0.00    -0.297 N 
ATOM      9  H   ASN A  11      28.368   4.644  21.067  0.00  0.00    +0.150 HD
BRANCH   8  10
ATOM     10  CA  ASN A  11      27.684   3.013  19.866  0.00  0.00    +0.158 C 
BRANCH  10  11
ATOM     11  C   ASN A  11      29.164   2.565  19.990  0.00  0.00    +0.241 C 
ATOM     12  O   ASN A  11      29.967   3.268  20.591  0.00  0.00    -0.273 OA
ATOM     13  N   PHE A  12      29.523   1.419  19.421  0.00  0.00    -0.297 N 
ATOM     14  H   PHE A  12      28.816   0.853  18.910  0.00  0.00    +0.150 HD
BRANCH  13  15
ATOM     15  CA  PHE A  12      30.914   0.945  19.509  0.00  0.00    +0.153 C 
BRANCH  15  16
ATOM     16  C   PHE A  12      31.885   1.879  18.730  0.00  0.00    +0.241 C 
ATOM     17  O   PHE A  12      33.069   1.918  19.029  0.00  0.00    -0.273 OA
ATOM     18  N   GLU A  13      31.392   2.586  17.710  0.00  0.00    -0.297 N 
ATOM     19  H   GLU A  13      30.410   2.430  17.406  0.00  0.00    +0.150 HD
BRANCH  18  20
ATOM     20  CA  GLU A  13      32.227   3.594  17.002  0.00  0.00    +0.149 C 
BRANCH  20  21
ATOM     21  C   GLU A  13      32.731   4.751  17.915  0.00  0.00    +0.241 C 
ATOM     22  N   GLN A  14      31.879   5.289  18.779  0.00  0.00    -0.297 N 
ATOM     23  H   GLN A  14      30.895   4.952  18.800  0.00  0.00    +0.150 HD
ATOM     24  O   GLU A  13      33.862   5.137  17.835  0.00  0.00    -0.273 OA
BRANCH  22  25
ATOM     25  CA  GLN A  14      32.293   6.344  19.701  0.00  0.00    +0.149 C 
BRANCH  25  26
ATOM     26  C   GLN A  14      33.304   5.795  20.723  0.00  0.00    +0.241 C 
ATOM     27  N   ARG A  15      33.054   4.559  21.190  0.00  0.00    -0.297 N 
ATOM     28  H   ARG A  15      32.160   4.099  20.926  0.00  0.00    +0.150 HD
ATOM     29  O   GLN A  14      34.255   6.496  21.112  0.00  0.00    -0.273 OA
BRANCH  27  30
ATOM     30  CA  ARG A  15      33.983   3.837  22.050  0.00  0.00    +0.149 C 
BRANCH  30  31
ATOM     31  C   ARG A  15      35.339   3.713  21.378  0.00  0.00    +0.241 C 
ATOM     32  O   ARG A  15      36.356   3.978  22.006  0.00  0.00    -0.273 OA
ATOM     33  N   GLY A  16      35.340   3.282  20.122  0.00  0.00    -0.296 N 
ATOM     34  H   GLY A  16      34.433   3.022  19.685  0.00  0.00    +0.150 HD
BRANCH  33  35
ATOM     35  CA  GLY A  16      36.565   3.157  19.324  0.00  0.00    +0.163 C 
BRANCH  35  36
ATOM     36  C   GLY A  16      37.253   4.504  19.097  0.00  0.00    +0.229 C 
ATOM     37  O   GLY A  16      38.443   4.618  19.280  0.00  0.00    -0.286 OA
ENDBRANCH  35  36
ENDBRANCH  33  35
ENDBRANCH  30  31
BRANCH  30  38
ATOM     38  CB  ARG A  15      33.425   2.427  22.432  0.00  0.00    +0.033 C 
BRANCH  38  39
ATOM     39  CG  ARG A  15      34.344   1.580  23.355  0.00  0.00    +0.045 C 
BRANCH  39  40
ATOM     40  CD  ARG A  15      33.585   0.354  23.828  0.00  0.00    +0.174 C 
BRANCH  40  41
ATOM     41  NE  ARG A  15      33.292  -0.641  22.779  0.00  0.00    -0.265 N 
ATOM     42  CZ  ARG A  15      32.563  -1.739  22.976  0.00  0.00    +0.342 C 
ATOM     43  NH2 ARG A  15      32.060  -1.974  24.194  0.00  0.00    -0.292 N 
ATOM     44 HH21 ARG A  15      32.240  -1.304  24.969  0.00  0.00    +0.255 HD
ATOM     45 HH22 ARG A  15      31.489  -2.826  24.365  0.00  0.00    +0.255 HD
ATOM     46  NH1 ARG A  15      32.362  -2.631  21.969  0.00  0.00    -0.292 N 
ATOM     47 HH11 ARG A  15      31.791  -3.484  22.136  0.00  0.00    +0.255 HD
ATOM     48 HH12 ARG A  15      32.779  -2.460  21.032  0.00  0.00    +0.255 HD
ATOM     49  HE  ARG A  15      33.678  -0.475  21.828  0.00  0.00    +0.259 HD
ENDBRANCH  40  41
ENDBRANCH  39  40
ENDBRANCH  38  39
ENDBRANCH  30  38
ENDBRANCH  27  30
ENDBRANCH  25  26
BRANCH  25  50
ATOM     50  CB  GLN A  14      31.067   6.884  20.434  0.00  0.00    +0.039 C 
BRANCH  50  51
ATOM     51  CG  GLN A  14      31.392   7.963  21.479  0.00  0.00    +0.087 C 
BRANCH  51  52
ATOM     52  CD  GLN A  14      30.141   8.514  22.198  0.00  0.00    +0.219 C 
ATOM     53  OE1 GLN A  14      29.661   7.929  23.149  0.00  0.00    -0.275 OA
ATOM     54  NE2 GLN A  14      29.644   9.660  21.742  0.00  0.00    -0.329 N 
ATOM     55 HE21 GLN A  14      28.815  10.087  22.202  0.00  0.00    +0.145 HD
ATOM     56 HE22 GLN A  14      30.084  10.129  20.925  0.00  0.00    +0.145 HD
ENDBRANCH  51  52
ENDBRANCH  50  51
ENDBRANCH  25  50
ENDBRANCH  22  25
ENDBRANCH  20  21
BRANCH  20  57
ATOM     57  CB  GLU A  13      31.506   4.172  15.776  0.00  0.00    +0.041 C 
BRANCH  57  58
ATOM     58  CG  GLU A  13      31.246   3.177  14.687  0.00  0.00    +0.116 C 
BRANCH  58  59
ATOM     59  CD  GLU A  13      29.830   2.638  14.699  0.00  0.00    +0.365 C 
ATOM     60  OE2 GLU A  13      29.221   2.489  15.789  0.00  0.00    -0.246 OA
ATOM     61  OE1 GLU A  13      29.310   2.375  13.598  0.00  0.00    -0.246 OA
ENDBRANCH  58  59
ENDBRANCH  57  58
ENDBRANCH  20  57
ENDBRANCH  18  20
ENDBRANCH  15  16
BRANCH  15  62
ATOM     62  CB  PHE A  12      31.044  -0.503  18.998  0.00  0.00    +0.055 C 
BRANCH  62  63
ATOM     63  CG  PHE A  12      30.880  -0.632  17.513  0.00  0.00    -0.020 A 
ATOM     64  CD2 PHE A  12      29.653  -0.974  16.982  0.00  0.00    -0.004 A 
ATOM     65  CE2 PHE A  12      29.475  -1.046  15.585  0.00  0.00    -0.000 A 
ATOM     66  CZ  PHE A  12      30.545  -0.782  14.730  0.00  0.00    -0.000 A 
ATOM     67  CE1 PHE A  12      31.785  -0.463  15.249  0.00  0.00    -0.000 A 
ATOM     68  CD1 PHE A  12      31.949  -0.374  16.637  0.00  0.00    -0.004 A 
ENDBRANCH  62  63
ENDBRANCH  15  62
ENDBRANCH  13  15
ENDBRANCH  10  11
BRANCH  10  69
ATOM     69  CB  ASN A  11      27.366   3.363  18.393  0.00  0.00    +0.114 C 
BRANCH  69  70
ATOM     70  CG  ASN A  11      27.878   4.767  17.987  0.00  0.00    +0.222 C 
ATOM     71  OD1 ASN A  11      28.991   5.150  18.320  0.00  0.00    -0.275 OA
ATOM     72  ND2 ASN A  11      27.032   5.539  17.282  0.00  0.00    -0.329 N 
ATOM     73 HD21 ASN A  11      26.094   5.176  17.018  0.00  0.00    +0.145 HD
ATOM     74 HD22 ASN A  11      27.316   6.499  17.000  0.00  0.00    +0.145 HD
ENDBRANCH  69  70
ENDBRANCH  10  69
ENDBRANCH   8  10
ENDBRANCH   5   6
BRANCH   5  75
ATOM     75  CB  LYS A  10      26.658   7.190  20.906  0.00  0.00    +0.029 C 
BRANCH  75  76
ATOM     76  CG  LYS A  10      25.319   7.755  20.376  0.00  0.00    +0.000 C 
BRANCH  76  77
ATOM     77  CD  LYS A  10      25.469   8.772  19.232  0.00  0.00    -0.024 C 
BRANCH  77  78
ATOM     78  CE  LYS A  10      24.052   9.336  18.837  0.00  0.00    -0.086 C 
BRANCH  78  79
ATOM     79  NZ  LYS A  10      24.052  10.820  18.552  0.00  0.00    +0.380 N 
ATOM     80  HZ1 LYS A  10      24.368  11.334  19.399  0.00  0.00    -0.089 HD
ATOM     81  HZ2 LYS A  10      23.090  11.123  18.299  0.00  0.00    -0.089 HD
ATOM     82  HZ3 LYS A  10      24.699  11.020  17.762  0.00  0.00    -0.089 HD
ENDBRANCH  78  79
ENDBRANCH  77  78
ENDBRANCH  76  77
ENDBRANCH  75  76
ENDBRANCH   5  75
ENDBRANCH   3   5
BRANCH   1  83
ATOM     83  CA  PHE A   9      28.681   5.155  24.785  0.00  0.00    +0.153 C 
BRANCH  83  86
ATOM     84  C   GLN A   8      28.662   5.018  27.249  0.00  0.00    +0.241 C 
ATOM     85  O   GLN A   8      29.296   6.083  27.348  0.00  0.00    -0.273 OA
ATOM     86  N   PHE A   9      28.277   4.535  26.053  0.00  0.00    -0.297 N 
ATOM     87  H   PHE A   9      27.670   3.691  26.026  0.00  0.00    +0.150 HD
BRANCH  84  88
ATOM     88  CA  GLN A   8      28.346   4.167  28.507  0.00  0.00    +0.149 C 
BRANCH  88  91
ATOM     89  C   ASP A   7      26.580   2.563  29.173  0.00  0.00    +0.241 C 
ATOM     90  O   ASP A   7      26.211   3.258  30.123  0.00  0.00    -0.273 OA
ATOM     91  N   GLN A   8      27.514   2.952  28.300  0.00  0.00    -0.297 N 
ATOM     92  H   GLN A   8      27.665   2.383  27.443  0.00  0.00    +0.150 HD
BRANCH  89  93
ATOM     93  CA  ASP A   7      25.892   1.219  28.940  0.00  0.00    +0.160 C 
BRANCH  93  95
ATOM     94  C   LEU A   6      25.324   1.431  26.564  0.00  0.00    +0.241 C 
ATOM     95  N   ASP A   7      25.960   0.770  27.534  0.00  0.00    -0.297 N 
ATOM     96  H   ASP A   7      26.514  -0.077  27.295  0.00  0.00    +0.150 HD
ATOM     97  O   LEU A   6      24.616   2.409  26.782  0.00  0.00    -0.273 OA
BRANCH  94  98
ATOM     98  CA  LEU A   6      25.551   0.976  25.116  0.00  0.00    +0.149 C 
BRANCH  98 101
ATOM     99  C   SER A   5      27.956   0.633  25.071  0.00  0.00    +0.243 C 
ATOM    100  O   SER A   5      28.158   1.720  25.616  0.00  0.00    -0.273 OA
ATOM    101  N   LEU A   6      26.725   0.134  24.923  0.00  0.00    -0.297 N 
ATOM    102  H   LEU A   6      26.603  -0.867  24.667  0.00  0.00    +0.150 HD
BRANCH  99 103
ATOM    103  CA  SER A   5      29.131  -0.204  24.554  0.00  0.00    +0.178 C 
BRANCH 103 106
ATOM    104  C   ALA A   4      28.699  -2.629  24.651  0.00  0.00    +0.241 C 
ATOM    105  O   ALA A   4      29.068  -2.743  25.832  0.00  0.00    -0.273 OA
ATOM    106  N   SER A   5      28.710  -1.483  23.981  0.00  0.00    -0.295 N 
ATOM    107  H   SER A   5      28.400  -1.495  22.988  0.00  0.00    +0.150 HD
BRANCH 104 108
ATOM    108  CA  ALA A   4      28.114  -3.822  23.888  0.00  0.00    +0.149 C 
ATOM    109  CB  ALA A   4      26.604  -3.856  24.075  0.00  0.00    +0.031 C 
BRANCH 108 111
ATOM    110  C   CYS A   3      30.041  -5.269  24.314  0.00  0.00    +0.242 C 
ATOM    111  N   ALA A   4      28.732  -5.052  24.397  0.00  0.00    -0.297 N 
ATOM    112  H   ALA A   4      28.128  -5.776  24.836  0.00  0.00    +0.150 HD
ATOM    113  O   CYS A   3      30.812  -4.569  23.651  0.00  0.00    -0.273 OA
BRANCH 110 114
ATOM    114  CA  CYS A   3      30.574  -6.413  25.160  0.00  0.00    +0.160 C 
BRANCH 114 117
ATOM    115  C   ALA A   2      32.181  -8.261  24.718  0.00  0.00    +0.241 C 
ATOM    116  O   ALA A   2      31.383  -9.199  25.028  0.00  0.00    -0.273 OA
ATOM    117  N   CYS A   3      31.846  -6.963  24.622  0.00  0.00    -0.296 N 
ATOM    118  H   CYS A   3      32.507  -6.314  24.150  0.00  0.00    +0.150 HD
BRANCH 115 119
ATOM    119  CA  ALA A   2      33.631  -8.607  24.350  0.00  0.00    +0.149 C 
ATOM    120  CB  ALA A   2      34.176  -9.602  25.347  0.00  0.00    +0.031 C 
BRANCH 119 123
ATOM    121  C   PRO A   1      34.904  -6.679  25.230  0.00  0.00    +0.239 C 
ATOM    122  O   PRO A   1      34.528  -6.864  26.353  0.00  0.00    -0.274 OA
ATOM    123  N   ALA A   2      34.533  -7.441  24.187  0.00  0.00    -0.297 N 
ATOM    124  H   ALA A   2      34.889  -7.206  23.238  0.00  0.00    +0.150 HD
BRANCH 121 126
ATOM    125  N   PRO A   1      36.610  -5.569  23.780  0.00  0.00    -0.210 NA
ATOM    126  CA  PRO A   1      35.837  -5.534  24.997  0.00  0.00    +0.149 C 
ATOM    127  CB  PRO A   1      35.068  -4.211  24.882  0.00  0.00    +0.028 C 
ATOM    128  CG  PRO A   1      34.991  -3.949  23.466  0.00  0.00    +0.021 C 
ATOM    129  CD  PRO A   1      36.297  -4.430  22.911  0.00  0.00    +0.089 C 
ENDBRANCH 121 126
ENDBRANCH 119 123
ENDBRANCH 115 119
ENDBRANCH 114 117
BRANCH 114 130
ATOM    130  CB  CYS A   3      30.764  -5.814  26.576  0.00  0.00    +0.098 C 
ATOM    131  SG  CYS A   3      31.337  -6.970  27.879  0.00  0.00    -0.080 S 
ENDBRANCH 114 130
ENDBRANCH 110 114
ENDBRANCH 108 111
ENDBRANCH 104 108
ENDBRANCH 103 106
BRANCH 103 132
ATOM    132  CB  SER A   5      29.860   0.611  23.481  0.00  0.00    +0.166 C 
BRANCH 132 133
ATOM    133  OG  SER A   5      28.927   1.060  22.515  0.00  0.00    -0.380 OA
ATOM    134  H   SER A   5      28.487   0.279  22.095  0.00  0.00    +0.211 HD
ENDBRANCH 132 133
ENDBRANCH 103 132
ENDBRANCH  99 103
ENDBRANCH  98 101
BRANCH  98 135
ATOM    135  CB  LEU A   6      24.293   0.346  24.531  0.00  0.00    +0.029 C 
BRANCH 135 136
ATOM    136  CG  LEU A   6      24.234   0.066  23.023  0.00  0.00    +0.002 C 
ATOM    137  CD2 LEU A   6      22.771  -0.249  22.624  0.00  0.00    +0.000 C 
ATOM    138  CD1 LEU A   6      24.792   1.205  22.156  0.00  0.00    +0.000 C 
ENDBRANCH 135 136
ENDBRANCH  98 135
ENDBRANCH  94  98
ENDBRANCH  93  95
BRANCH  93 139
ATOM    139  CB  ASP A   7      26.448   0.178  29.938  0.00  0.00    +0.143 C 
BRANCH 139 140
ATOM    140  CG  ASP A   7      27.936  -0.137  29.695  0.00  0.00    +0.367 C 
ATOM    141  OD2 ASP A   7      28.727  -0.119  30.661  0.00  0.00    -0.246 OA
ATOM    142  OD1 ASP A   7      28.305  -0.406  28.527  0.00  0.00    -0.246 OA
ENDBRANCH 139 140
ENDBRANCH  93 139
ENDBRANCH  89  93
ENDBRANCH  88  91
BRANCH  88 143
ATOM    143  CB  GLN A   8      29.660   3.755  29.158  0.00  0.00    +0.039 C 
BRANCH 143 144
ATOM    144  CG  GLN A   8      29.531   3.125  30.505  0.00  0.00    +0.087 C 
BRANCH 144 145
ATOM    145  CD  GLN A   8      30.858   2.628  31.049  0.00  0.00    +0.219 C 
ATOM    146  NE2 GLN A   8      31.096   2.879  32.325  0.00  0.00    -0.329 N 
ATOM    147 HE21 GLN A   8      30.397   3.400  32.892  0.00  0.00    +0.145 HD
ATOM    148 HE22 GLN A   8      31.982   2.555  32.762  0.00  0.00    +0.145 HD
ATOM    149  OE1 GLN A   8      31.655   2.014  30.334  0.00  0.00    -0.275 OA
ENDBRANCH 144 145
ENDBRANCH 143 144
ENDBRANCH  88 143
ENDBRANCH  84  88
ENDBRANCH  83  86
BRANCH  83 150
ATOM    150  CB  PHE A   9      29.821   4.358  24.076  0.00  0.00    +0.055 C 
BRANCH 150 151
ATOM    151  CG  PHE A   9      31.134   4.293  24.845  0.00  0.00    -0.020 A 
ATOM    152  CD2 PHE A   9      31.363   3.277  25.763  0.00  0.00    -0.004 A 
ATOM    153  CE2 PHE A   9      32.563   3.188  26.459  0.00  0.00    -0.000 A 
ATOM    154  CZ  PHE A   9      33.575   4.174  26.256  0.00  0.00    -0.000 A 
ATOM    155  CE1 PHE A   9      33.352   5.199  25.379  0.00  0.00    -0.000 A 
ATOM    156  CD1 PHE A   9      32.132   5.271  24.662  0.00  0.00    -0.004 A 
ENDBRANCH 150 151
ENDBRANCH  83 150
ENDBRANCH   1  83
TORSDOF 62
REMARK  Name = ../refined-set-2016/2jfh/2jfh_pocket.pdb
REMARK  223 active torsions:
REMARK  status: ('A' for Active; 'I' for Inactive)
REMARK    1  A    between atoms: _1  and  _3
REMARK    2  A    between atoms: _3  and  _4
REMARK    3  A    between atoms: _3  and  _6
REMARK    4  A    between atoms: _6  and  _7
REMARK    5  A    between atoms: _10  and  _12
REMARK    6  A    between atoms: _12  and  _13
REMARK    7  A    between atoms: _12  and  _15
REMARK    8  A    between atoms: _15  and  _16
REMARK    9  A    between atoms: _19  and  _21
REMARK   10  A    between atoms: _21  and  _22
REMARK   11  A    between atoms: _24  and  _26
REMARK   12  A    between atoms: _26  and  _27
REMARK   13  A    between atoms: _26  and  _29
REMARK   14  A    between atoms: _29  and  _30
REMARK   15  A    between atoms: _33  and  _35
REMARK   16  A    between atoms: _35  and  _36
REMARK   17  A    between atoms: _38  and  _40
REMARK   18  A    between atoms: _40  and  _41
REMARK   19  A    between atoms: _40  and  _43
REMARK   20  A    between atoms: _43  and  _44
REMARK   21  A    between atoms: _47  and  _49
REMARK   22  A    between atoms: _49  and  _50
REMARK   23  A    between atoms: _49  and  _52
REMARK   24  A    between atoms: _52  and  _53
REMARK   25  A    between atoms: _53  and  _54
REMARK   26  A    between atoms: _56  and  _58
REMARK   27  A    between atoms: _58  and  _59
REMARK   28  A    between atoms: _58  and  _61
REMARK   29  A    between atoms: _61  and  _62
REMARK   30  A    between atoms: _65  and  _67
REMARK   31  A    between atoms: _67  and  _68
REMARK   32  A    between atoms: _67  and  _70
REMARK   33  A    between atoms: _70  and  _71
REMARK   34  A    between atoms: _74  and  _76
REMARK   35  A    between atoms: _76  and  _77
REMARK   36  A    between atoms: _76  and  _79
REMARK   37  A    between atoms: _79  and  _80
REMARK   38  A    between atoms: _80  and  _81
REMARK   39  A    between atoms: _81  and  _82
REMARK   40  A    between atoms: _92  and  _93
REMARK   41  A    between atoms: _99  and  _100
REMARK   42  A    between atoms: _105  and  _107
REMARK   43  A    between atoms: _107  and  _108
REMARK   44  A    between atoms: _110  and  _112
REMARK   45  A    between atoms: _112  and  _113
REMARK   46  A    between atoms: _112  and  _115
REMARK   47  A    between atoms: _115  and  _116
REMARK   48  A    between atoms: _118  and  _120
REMARK   49  A    between atoms: _120  and  _121
REMARK   50  A    between atoms: _120  and  _123
REMARK   51  A    between atoms: _123  and  _124
REMARK   52  A    between atoms: _127  and  _129
REMARK   53  A    between atoms: _129  and  _130
REMARK   54  A    between atoms: _133  and  _135
REMARK   55  A    between atoms: _135  and  _136
REMARK   56  A    between atoms: _135  and  _138
REMARK   57  A    between atoms: _138  and  _139
REMARK   58  A    between atoms: _142  and  _143
REMARK   59  A    between atoms: _148  and  _150
REMARK   60  A    between atoms: _150  and  _151
REMARK   61  A    between atoms: _153  and  _155
REMARK   62  A    between atoms: _155  and  _156
REMARK   63  A    between atoms: _155  and  _158
REMARK   64  A    between atoms: _158  and  _159
REMARK   65  A    between atoms: _162  and  _164
REMARK   66  A    between atoms: _164  and  _165
REMARK   67  A    between atoms: _168  and  _170
REMARK   68  A    between atoms: _170  and  _171
REMARK   69  A    between atoms: _170  and  _173
REMARK   70  A    between atoms: _173  and  _174
REMARK   71  A    between atoms: _179  and  _181
REMARK   72  A    between atoms: _181  and  _182
REMARK   73  A    between atoms: _181  and  _184
REMARK   74  A    between atoms: _184  and  _185
REMARK   75  A    between atoms: _187  and  _189
REMARK   76  A    between atoms: _189  and  _190
REMARK   77  A    between atoms: _189  and  _192
REMARK   78  A    between atoms: _192  and  _193
REMARK   79  A    between atoms: _193  and  _194
REMARK   80  A    between atoms: _194  and  _195
REMARK   81  A    between atoms: _195  and  _196
REMARK   82  A    between atoms: _200  and  _202
REMARK   83  A    between atoms: _202  and  _203
REMARK   84  A    between atoms: _202  and  _205
REMARK   85  A    between atoms: _205  and  _206
REMARK   86  A    between atoms: _211  and  _213
REMARK   87  A    between atoms: _213  and  _214
REMARK   88  A    between atoms: _213  and  _216
REMARK   89  A    between atoms: _216  and  _217
REMARK   90  A    between atoms: _219  and  _221
REMARK   91  A    between atoms: _221  and  _222
REMARK   92  A    between atoms: _221  and  _224
REMARK   93  A    between atoms: _224  and  _225
REMARK   94  A    between atoms: _227  and  _229
REMARK   95  A    between atoms: _229  and  _230
REMARK   96  A    between atoms: _229  and  _232
REMARK   97  A    between atoms: _232  and  _233
REMARK   98  A    between atoms: _239  and  _241
REMARK   99  A    between atoms: _241  and  _242
REMARK  100  A    between atoms: _241  and  _244
REMARK  101  A    between atoms: _244  and  _245
REMARK  102  A    between atoms: _245  and  _246
REMARK  103  A    between atoms: _251  and  _253
REMARK  104  A    between atoms: _253  and  _254
REMARK  105  A    between atoms: _253  and  _256
REMARK  106  A    between atoms: _256  and  _257
REMARK  107  A    between atoms: _260  and  _262
REMARK  108  A    between atoms: _262  and  _263
REMARK  109  A    between atoms: _262  and  _265
REMARK  110  A    between atoms: _265  and  _266
REMARK  111  A    between atoms: _271  and  _273
REMARK  112  A    between atoms: _273  and  _274
REMARK  113  A    between atoms: _273  and  _276
REMARK  114  A    between atoms: _276  and  _277
REMARK  115  A    between atoms: _280  and  _282
REMARK  116  A    between atoms: _282  and  _283
REMARK  117  A    between atoms: _282  and  _285
REMARK  118  A    between atoms: _285  and  _286
REMARK  119  A    between atoms: _286  and  _287
REMARK  120  A    between atoms: _287  and  _288
REMARK  121  A    between atoms: _297  and  _299
REMARK  122  A    between atoms: _299  and  _300
REMARK  123  A    between atoms: _299  and  _306
REMARK  124  A    between atoms: _300  and  _301
REMARK  125  A    between atoms: _301  and  _302
REMARK  126  A    between atoms: _302  and  _303
REMARK  127  A    between atoms: _303  and  _304
REMARK  128  A    between atoms: _311  and  _313
REMARK  129  A    between atoms: _313  and  _314
REMARK  130  A    between atoms: _313  and  _316
REMARK  131  A    between atoms: _316  and  _317
REMARK  132  A    between atoms: _319  and  _321
REMARK  133  A    between atoms: _321  and  _322
REMARK  134  A    between atoms: _321  and  _324
REMARK  135  A    between atoms: _324  and  _325
REMARK  136  A    between atoms: _325  and  _326
REMARK  137  A    between atoms: _326  and  _327
REMARK  138  A    between atoms: _327  and  _328
REMARK  139  A    between atoms: _332  and  _334
REMARK  140  A    between atoms: _334  and  _335
REMARK  141  A    between atoms: _338  and  _340
REMARK  142  A    between atoms: _340  and  _341
REMARK  143  A    between atoms: _340  and  _343
REMARK  144  A    between atoms: _343  and  _344
REMARK  145  A    between atoms: _347  and  _349
REMARK  146  A    between atoms: _349  and  _350
REMARK  147  A    between atoms: _349  and  _352
REMARK  148  A    between atoms: _352  and  _353
REMARK  149  A    between atoms: _358  and  _360
REMARK  150  A    between atoms: _360  and  _361
REMARK  151  A    between atoms: _360  and  _363
REMARK  152  A    between atoms: _363  and  _364
REMARK  153  A    between atoms: _367  and  _369
REMARK  154  A    between atoms: _369  and  _370
REMARK  155  A    between atoms: _372  and  _374
REMARK  156  A    between atoms: _374  and  _375
REMARK  157  A    between atoms: _374  and  _377
REMARK  158  A    between atoms: _377  and  _378
REMARK  159  A    between atoms: _378  and  _379
REMARK  160  A    between atoms: _379  and  _380
REMARK  161  A    between atoms: _380  and  _381
REMARK  162  A    between atoms: _386  and  _387
REMARK  163  A    between atoms: _392  and  _394
REMARK  164  A    between atoms: _394  and  _395
REMARK  165  A    between atoms: _398  and  _400
REMARK  166  A    between atoms: _400  and  _401
REMARK  167  A    between atoms: _400  and  _403
REMARK  168  A    between atoms: _405  and  _407
REMARK  169  A    between atoms: _407  and  _408
REMARK  170  A    between atoms: _411  and  _413
REMARK  171  A    between atoms: _413  and  _414
REMARK  172  A    between atoms: _413  and  _416
REMARK  173  A    between atoms: _416  and  _417
REMARK  174  A    between atoms: _419  and  _421
REMARK  175  A    between atoms: _421  and  _422
REMARK  176  A    between atoms: _421  and  _424
REMARK  177  A    between atoms: _424  and  _425
REMARK  178  A    between atoms: _428  and  _430
REMARK  179  A    between atoms: _430  and  _431
REMARK  180  A    between atoms: _430  and  _433
REMARK  181  A    between atoms: _433  and  _434
REMARK  182  A    between atoms: _437  and  _439
REMARK  183  A    between atoms: _439  and  _440
REMARK  184  A    between atoms: _439  and  _442
REMARK  185  A    between atoms: _442  and  _443
REMARK  186  A    between atoms: _443  and  _444
REMARK  187  A    between atoms: _449  and  _451
REMARK  188  A    between atoms: _451  and  _452
REMARK  189  A    between atoms: _451  and  _454
REMARK  190  A    between atoms: _454  and  _455
REMARK  191  A    between atoms: _461  and  _463
REMARK  192  A    between atoms: _463  and  _464
REMARK  193  A    between atoms: _463  and  _466
REMARK  194  A    between atoms: _466  and  _467
REMARK  195  A    between atoms: _467  and  _468
REMARK  196  A    between atoms: _468  and  _469
REMARK  197  A    between atoms: _469  and  _470
REMARK  198  A    between atoms: _474  and  _476
REMARK  199  A    between atoms: _476  and  _477
REMARK  200  A    between atoms: _476  and  _479
REMARK  201  A    between atoms: _479  and  _480
REMARK  202  A    between atoms: _485  and  _487
REMARK  203  A    between atoms: _487  and  _488
REMARK  204  A    between atoms: _487  and  _490
REMARK  205  A    between atoms: _490  and  _491
REMARK  206  A    between atoms: _497  and  _499
REMARK  207  A    between atoms: _499  and  _500
REMARK  208  A    between atoms: _499  and  _502
REMARK  209  A    between atoms: _502  and  _503
REMARK  210  A    between atoms: _503  and  _504
REMARK  211  A    between atoms: _507  and  _509
REMARK  212  A    between atoms: _509  and  _510
REMARK  213  A    between atoms: _509  and  _512
REMARK  214  A    between atoms: _512  and  _513
REMARK  215  A    between atoms: _513  and  _514
REMARK  216  A    between atoms: _519  and  _521
REMARK  217  A    between atoms: _521  and  _522
REMARK  218  A    between atoms: _521  and  _524
REMARK  219  A    between atoms: _524  and  _525
REMARK  220  A    between atoms: _525  and  _526
REMARK  221  A    between atoms: _526  and  _527
REMARK  222  A    between atoms: _536  and  _538
REMARK  223  A    between atoms: _538  and  _539
REMARK                            x       y       z     vdW  Elec       q    Type
REMARK                         _______ _______ _______ _____ _____    ______ ____
ROOT
ATOM      1  O   HOH     1      20.617  -1.164  14.980  0.00  0.00    +0.000 OA
ENDROOT
TORSDOF 0
REMARK  Name = ../refined-set-2016/2jfh/2jfh_pocket.pdb
REMARK  223 active torsions:
REMARK  status: ('A' for Active; 'I' for Inactive)
REMARK    1  A    between atoms: _1  and  _3
REMARK    2  A    between atoms: _3  and  _4
REMARK    3  A    between atoms: _3  and  _6
REMARK    4  A    between atoms: _6  and  _7
REMARK    5  A    between atoms: _10  and  _12
REMARK    6  A    between atoms: _12  and  _13
REMARK    7  A    between atoms: _12  and  _15
REMARK    8  A    between atoms: _15  and  _16
REMARK    9  A    between atoms: _19  and  _21
REMARK   10  A    between atoms: _21  and  _22
REMARK   11  A    between atoms: _24  and  _26
REMARK   12  A    between atoms: _26  and  _27
REMARK   13  A    between atoms: _26  and  _29
REMARK   14  A    between atoms: _29  and  _30
REMARK   15  A    between atoms: _33  and  _35
REMARK   16  A    between atoms: _35  and  _36
REMARK   17  A    between atoms: _38  and  _40
REMARK   18  A    between atoms: _40  and  _41
REMARK   19  A    between atoms: _40  and  _43
REMARK   20  A    between atoms: _43  and  _44
REMARK   21  A    between atoms: _47  and  _49
REMARK   22  A    between atoms: _49  and  _50
REMARK   23  A    between atoms: _49  and  _52
REMARK   24  A    between atoms: _52  and  _53
REMARK   25  A    between atoms: _53  and  _54
REMARK   26  A    between atoms: _56  and  _58
REMARK   27  A    between atoms: _58  and  _59
REMARK   28  A    between atoms: _58  and  _61
REMARK   29  A    between atoms: _61  and  _62
REMARK   30  A    between atoms: _65  and  _67
REMARK   31  A    between atoms: _67  and  _68
REMARK   32  A    between atoms: _67  and  _70
REMARK   33  A    between atoms: _70  and  _71
REMARK   34  A    between atoms: _74  and  _76
REMARK   35  A    between atoms: _76  and  _77
REMARK   36  A    between atoms: _76  and  _79
REMARK   37  A    between atoms: _79  and  _80
REMARK   38  A    between atoms: _80  and  _81
REMARK   39  A    between atoms: _81  and  _82
REMARK   40  A    between atoms: _92  and  _93
REMARK   41  A    between atoms: _99  and  _100
REMARK   42  A    between atoms: _105  and  _107
REMARK   43  A    between atoms: _107  and  _108
REMARK   44  A    between atoms: _110  and  _112
REMARK   45  A    between atoms: _112  and  _113
REMARK   46  A    between atoms: _112  and  _115
REMARK   47  A    between atoms: _115  and  _116
REMARK   48  A    between atoms: _118  and  _120
REMARK   49  A    between atoms: _120  and  _121
REMARK   50  A    between atoms: _120  and  _123
REMARK   51  A    between atoms: _123  and  _124
REMARK   52  A    between atoms: _127  and  _129
REMARK   53  A    between atoms: _129  and  _130
REMARK   54  A    between atoms: _133  and  _135
REMARK   55  A    between atoms: _135  and  _136
REMARK   56  A    between atoms: _135  and  _138
REMARK   57  A    between atoms: _138  and  _139
REMARK   58  A    between atoms: _142  and  _143
REMARK   59  A    between atoms: _148  and  _150
REMARK   60  A    between atoms: _150  and  _151
REMARK   61  A    between atoms: _153  and  _155
REMARK   62  A    between atoms: _155  and  _156
REMARK   63  A    between atoms: _155  and  _158
REMARK   64  A    between atoms: _158  and  _159
REMARK   65  A    between atoms: _162  and  _164
REMARK   66  A    between atoms: _164  and  _165
REMARK   67  A    between atoms: _168  and  _170
REMARK   68  A    between atoms: _170  and  _171
REMARK   69  A    between atoms: _170  and  _173
REMARK   70  A    between atoms: _173  and  _174
REMARK   71  A    between atoms: _179  and  _181
REMARK   72  A    between atoms: _181  and  _182
REMARK   73  A    between atoms: _181  and  _184
REMARK   74  A    between atoms: _184  and  _185
REMARK   75  A    between atoms: _187  and  _189
REMARK   76  A    between atoms: _189  and  _190
REMARK   77  A    between atoms: _189  and  _192
REMARK   78  A    between atoms: _192  and  _193
REMARK   79  A    between atoms: _193  and  _194
REMARK   80  A    between atoms: _194  and  _195
REMARK   81  A    between atoms: _195  and  _196
REMARK   82  A    between atoms: _200  and  _202
REMARK   83  A    between atoms: _202  and  _203
REMARK   84  A    between atoms: _202  and  _205
REMARK   85  A    between atoms: _205  and  _206
REMARK   86  A    between atoms: _211  and  _213
REMARK   87  A    between atoms: _213  and  _214
REMARK   88  A    between atoms: _213  and  _216
REMARK   89  A    between atoms: _216  and  _217
REMARK   90  A    between atoms: _219  and  _221
REMARK   91  A    between atoms: _221  and  _222
REMARK   92  A    between atoms: _221  and  _224
REMARK   93  A    between atoms: _224  and  _225
REMARK   94  A    between atoms: _227  and  _229
REMARK   95  A    between atoms: _229  and  _230
REMARK   96  A    between atoms: _229  and  _232
REMARK   97  A    between atoms: _232  and  _233
REMARK   98  A    between atoms: _239  and  _241
REMARK   99  A    between atoms: _241  and  _242
REMARK  100  A    between atoms: _241  and  _244
REMARK  101  A    between atoms: _244  and  _245
REMARK  102  A    between atoms: _245  and  _246
REMARK  103  A    between atoms: _251  and  _253
REMARK  104  A    between atoms: _253  and  _254
REMARK  105  A    between atoms: _253  and  _256
REMARK  106  A    between atoms: _256  and  _257
REMARK  107  A    between atoms: _260  and  _262
REMARK  108  A    between atoms: _262  and  _263
REMARK  109  A    between atoms: _262  and  _265
REMARK  110  A    between atoms: _265  and  _266
REMARK  111  A    between atoms: _271  and  _273
REMARK  112  A    between atoms: _273  and  _274
REMARK  113  A    between atoms: _273  and  _276
REMARK  114  A    between atoms: _276  and  _277
REMARK  115  A    between atoms: _280  and  _282
REMARK  116  A    between atoms: _282  and  _283
REMARK  117  A    between atoms: _282  and  _285
REMARK  118  A    between atoms: _285  and  _286
REMARK  119  A    between atoms: _286  and  _287
REMARK  120  A    between atoms: _287  and  _288
REMARK  121  A    between atoms: _297  and  _299
REMARK  122  A    between atoms: _299  and  _300
REMARK  123  A    between atoms: _299  and  _306
REMARK  124  A    between atoms: _300  and  _301
REMARK  125  A    between atoms: _301  and  _302
REMARK  126  A    between atoms: _302  and  _303
REMARK  127  A    between atoms: _303  and  _304
REMARK  128  A    between atoms: _311  and  _313
REMARK  129  A    between atoms: _313  and  _314
REMARK  130  A    between atoms: _313  and  _316
REMARK  131  A    between atoms: _316  and  _317
REMARK  132  A    between atoms: _319  and  _321
REMARK  133  A    between atoms: _321  and  _322
REMARK  134  A    between atoms: _321  and  _324
REMARK  135  A    between atoms: _324  and  _325
REMARK  136  A    between atoms: _325  and  _326
REMARK  137  A    between atoms: _326  and  _327
REMARK  138  A    between atoms: _327  and  _328
REMARK  139  A    between atoms: _332  and  _334
REMARK  140  A    between atoms: _334  and  _335
REMARK  141  A    between atoms: _338  and  _340
REMARK  142  A    between atoms: _340  and  _341
REMARK  143  A    between atoms: _340  and  _343
REMARK  144  A    between atoms: _343  and  _344
REMARK  145  A    between atoms: _347  and  _349
REMARK  146  A    between atoms: _349  and  _350
REMARK  147  A    between atoms: _349  and  _352
REMARK  148  A    between atoms: _352  and  _353
REMARK  149  A    between atoms: _358  and  _360
REMARK  150  A    between atoms: _360  and  _361
REMARK  151  A    between atoms: _360  and  _363
REMARK  152  A    between atoms: _363  and  _364
REMARK  153  A    between atoms: _367  and  _369
REMARK  154  A    between atoms: _369  and  _370
REMARK  155  A    between atoms: _372  and  _374
REMARK  156  A    between atoms: _374  and  _375
REMARK  157  A    between atoms: _374  and  _377
REMARK  158  A    between atoms: _377  and  _378
REMARK  159  A    between atoms: _378  and  _379
REMARK  160  A    between atoms: _379  and  _380
REMARK  161  A    between atoms: _380  and  _381
REMARK  162  A    between atoms: _386  and  _387
REMARK  163  A    between atoms: _392  and  _394
REMARK  164  A    between atoms: _394  and  _395
REMARK  165  A    between atoms: _398  and  _400
REMARK  166  A    between atoms: _400  and  _401
REMARK  167  A    between atoms: _400  and  _403
REMARK  168  A    between atoms: _405  and  _407
REMARK  169  A    between atoms: _407  and  _408
REMARK  170  A    between atoms: _411  and  _413
REMARK  171  A    between atoms: _413  and  _414
REMARK  172  A    between atoms: _413  and  _416
REMARK  173  A    between atoms: _416  and  _417
REMARK  174  A    between atoms: _419  and  _421
REMARK  175  A    between atoms: _421  and  _422
REMARK  176  A    between atoms: _421  and  _424
REMARK  177  A    between atoms: _424  and  _425
REMARK  178  A    between atoms: _428  and  _430
REMARK  179  A    between atoms: _430  and  _431
REMARK  180  A    between atoms: _430  and  _433
REMARK  181  A    between atoms: _433  and  _434
REMARK  182  A    between atoms: _437  and  _439
REMARK  183  A    between atoms: _439  and  _440
REMARK  184  A    between atoms: _439  and  _442
REMARK  185  A    between atoms: _442  and  _443
REMARK  186  A    between atoms: _443  and  _444
REMARK  187  A    between atoms: _449  and  _451
REMARK  188  A    between atoms: _451  and  _452
REMARK  189  A    between atoms: _451  and  _454
REMARK  190  A    between atoms: _454  and  _455
REMARK  191  A    between atoms: _461  and  _463
REMARK  192  A    between atoms: _463  and  _464
REMARK  193  A    between atoms: _463  and  _466
REMARK  194  A    between atoms: _466  and  _467
REMARK  195  A    between atoms: _467  and  _468
REMARK  196  A    between atoms: _468  and  _469
REMARK  197  A    between atoms: _469  and  _470
REMARK  198  A    between atoms: _474  and  _476
REMARK  199  A    between atoms: _476  and  _477
REMARK  200  A    between atoms: _476  and  _479
REMARK  201  A    between atoms: _479  and  _480
REMARK  202  A    between atoms: _485  and  _487
REMARK  203  A    between atoms: _487  and  _488
REMARK  204  A    between atoms: _487  and  _490
REMARK  205  A    between atoms: _490  and  _491
REMARK  206  A    between atoms: _497  and  _499
REMARK  207  A    between atoms: _499  and  _500
REMARK  208  A    between atoms: _499  and  _502
REMARK  209  A    between atoms: _502  and  _503
REMARK  210  A    between atoms: _503  and  _504
REMARK  211  A    between atoms: _507  and  _509
REMARK  212  A    between atoms: _509  and  _510
REMARK  213  A    between atoms: _509  and  _512
REMARK  214  A    between atoms: _512  and  _513
REMARK  215  A    between atoms: _513  and  _514
REMARK  216  A    between atoms: _519  and  _521
REMARK  217  A    between atoms: _521  and  _522
REMARK  218  A    between atoms: _521  and  _524
REMARK  219  A    between atoms: _524  and  _525
REMARK  220  A    between atoms: _525  and  _526
REMARK  221  A    between atoms: _526  and  _527
REMARK  222  A    between atoms: _536  and  _538
REMARK  223  A    between atoms: _538  and  _539
REMARK                            x       y       z     vdW  Elec       q    Type
REMARK                         _______ _______ _______ _____ _____    ______ ____
ROOT
ATOM      1  O   HOH     1      12.397   1.644  13.512  0.00  0.00    +0.000 OA
ENDROOT
TORSDOF 0
REMARK  Name = ../refined-set-2016/2jfh/2jfh_pocket.pdb
REMARK  223 active torsions:
REMARK  status: ('A' for Active; 'I' for Inactive)
REMARK    1  A    between atoms: _1  and  _3
REMARK    2  A    between atoms: _3  and  _4
REMARK    3  A    between atoms: _3  and  _6
REMARK    4  A    between atoms: _6  and  _7
REMARK    5  A    between atoms: _10  and  _12
REMARK    6  A    between atoms: _12  and  _13
REMARK    7  A    between atoms: _12  and  _15
REMARK    8  A    between atoms: _15  and  _16
REMARK    9  A    between atoms: _19  and  _21
REMARK   10  A    between atoms: _21  and  _22
REMARK   11  A    between atoms: _24  and  _26
REMARK   12  A    between atoms: _26  and  _27
REMARK   13  A    between atoms: _26  and  _29
REMARK   14  A    between atoms: _29  and  _30
REMARK   15  A    between atoms: _33  and  _35
REMARK   16  A    between atoms: _35  and  _36
REMARK   17  A    between atoms: _38  and  _40
REMARK   18  A    between atoms: _40  and  _41
REMARK   19  A    between atoms: _40  and  _43
REMARK   20  A    between atoms: _43  and  _44
REMARK   21  A    between atoms: _47  and  _49
REMARK   22  A    between atoms: _49  and  _50
REMARK   23  A    between atoms: _49  and  _52
REMARK   24  A    between atoms: _52  and  _53
REMARK   25  A    between atoms: _53  and  _54
REMARK   26  A    between atoms: _56  and  _58
REMARK   27  A    between atoms: _58  and  _59
REMARK   28  A    between atoms: _58  and  _61
REMARK   29  A    between atoms: _61  and  _62
REMARK   30  A    between atoms: _65  and  _67
REMARK   31  A    between atoms: _67  and  _68
REMARK   32  A    between atoms: _67  and  _70
REMARK   33  A    between atoms: _70  and  _71
REMARK   34  A    between atoms: _74  and  _76
REMARK   35  A    between atoms: _76  and  _77
REMARK   36  A    between atoms: _76  and  _79
REMARK   37  A    between atoms: _79  and  _80
REMARK   38  A    between atoms: _80  and  _81
REMARK   39  A    between atoms: _81  and  _82
REMARK   40  A    between atoms: _92  and  _93
REMARK   41  A    between atoms: _99  and  _100
REMARK   42  A    between atoms: _105  and  _107
REMARK   43  A    between atoms: _107  and  _108
REMARK   44  A    between atoms: _110  and  _112
REMARK   45  A    between atoms: _112  and  _113
REMARK   46  A    between atoms: _112  and  _115
REMARK   47  A    between atoms: _115  and  _116
REMARK   48  A    between atoms: _118  and  _120
REMARK   49  A    between atoms: _120  and  _121
REMARK   50  A    between atoms: _120  and  _123
REMARK   51  A    between atoms: _123  and  _124
REMARK   52  A    between atoms: _127  and  _129
REMARK   53  A    between atoms: _129  and  _130
REMARK   54  A    between atoms: _133  and  _135
REMARK   55  A    between atoms: _135  and  _136
REMARK   56  A    between atoms: _135  and  _138
REMARK   57  A    between atoms: _138  and  _139
REMARK   58  A    between atoms: _142  and  _143
REMARK   59  A    between atoms: _148  and  _150
REMARK   60  A    between atoms: _150  and  _151
REMARK   61  A    between atoms: _153  and  _155
REMARK   62  A    between atoms: _155  and  _156
REMARK   63  A    between atoms: _155  and  _158
REMARK   64  A    between atoms: _158  and  _159
REMARK   65  A    between atoms: _162  and  _164
REMARK   66  A    between atoms: _164  and  _165
REMARK   67  A    between atoms: _168  and  _170
REMARK   68  A    between atoms: _170  and  _171
REMARK   69  A    between atoms: _170  and  _173
REMARK   70  A    between atoms: _173  and  _174
REMARK   71  A    between atoms: _179  and  _181
REMARK   72  A    between atoms: _181  and  _182
REMARK   73  A    between atoms: _181  and  _184
REMARK   74  A    between atoms: _184  and  _185
REMARK   75  A    between atoms: _187  and  _189
REMARK   76  A    between atoms: _189  and  _190
REMARK   77  A    between atoms: _189  and  _192
REMARK   78  A    between atoms: _192  and  _193
REMARK   79  A    between atoms: _193  and  _194
REMARK   80  A    between atoms: _194  and  _195
REMARK   81  A    between atoms: _195  and  _196
REMARK   82  A    between atoms: _200  and  _202
REMARK   83  A    between atoms: _202  and  _203
REMARK   84  A    between atoms: _202  and  _205
REMARK   85  A    between atoms: _205  and  _206
REMARK   86  A    between atoms: _211  and  _213
REMARK   87  A    between atoms: _213  and  _214
REMARK   88  A    between atoms: _213  and  _216
REMARK   89  A    between atoms: _216  and  _217
REMARK   90  A    between atoms: _219  and  _221
REMARK   91  A    between atoms: _221  and  _222
REMARK   92  A    between atoms: _221  and  _224
REMARK   93  A    between atoms: _224  and  _225
REMARK   94  A    between atoms: _227  and  _229
REMARK   95  A    between atoms: _229  and  _230
REMARK   96  A    between atoms: _229  and  _232
REMARK   97  A    between atoms: _232  and  _233
REMARK   98  A    between atoms: _239  and  _241
REMARK   99  A    between atoms: _241  and  _242
REMARK  100  A    between atoms: _241  and  _244
REMARK  101  A    between atoms: _244  and  _245
REMARK  102  A    between atoms: _245  and  _246
REMARK  103  A    between atoms: _251  and  _253
REMARK  104  A    between atoms: _253  and  _254
REMARK  105  A    between atoms: _253  and  _256
REMARK  106  A    between atoms: _256  and  _257
REMARK  107  A    between atoms: _260  and  _262
REMARK  108  A    between atoms: _262  and  _263
REMARK  109  A    between atoms: _262  and  _265
REMARK  110  A    between atoms: _265  and  _266
REMARK  111  A    between atoms: _271  and  _273
REMARK  112  A    between atoms: _273  and  _274
REMARK  113  A    between atoms: _273  and  _276
REMARK  114  A    between atoms: _276  and  _277
REMARK  115  A    between atoms: _280  and  _282
REMARK  116  A    between atoms: _282  and  _283
REMARK  117  A    between atoms: _282  and  _285
REMARK  118  A    between atoms: _285  and  _286
REMARK  119  A    between atoms: _286  and  _287
REMARK  120  A    between atoms: _287  and  _288
REMARK  121  A    between atoms: _297  and  _299
REMARK  122  A    between atoms: _299  and  _300
REMARK  123  A    between atoms: _299  and  _306
REMARK  124  A    between atoms: _300  and  _301
REMARK  125  A    between atoms: _301  and  _302
REMARK  126  A    between atoms: _302  and  _303
REMARK  127  A    between atoms: _303  and  _304
REMARK  128  A    between atoms: _311  and  _313
REMARK  129  A    between atoms: _313  and  _314
REMARK  130  A    between atoms: _313  and  _316
REMARK  131  A    between atoms: _316  and  _317
REMARK  132  A    between atoms: _319  and  _321
REMARK  133  A    between atoms: _321  and  _322
REMARK  134  A    between atoms: _321  and  _324
REMARK  135  A    between atoms: _324  and  _325
REMARK  136  A    between atoms: _325  and  _326
REMARK  137  A    between atoms: _326  and  _327
REMARK  138  A    between atoms: _327  and  _328
REMARK  139  A    between atoms: _332  and  _334
REMARK  140  A    between atoms: _334  and  _335
REMARK  141  A    between atoms: _338  and  _340
REMARK  142  A    between atoms: _340  and  _341
REMARK  143  A    between atoms: _340  and  _343
REMARK  144  A    between atoms: _343  and  _344
REMARK  145  A    between atoms: _347  and  _349
REMARK  146  A    between atoms: _349  and  _350
REMARK  147  A    between atoms: _349  and  _352
REMARK  148  A    between atoms: _352  and  _353
REMARK  149  A    between atoms: _358  and  _360
REMARK  150  A    between atoms: _360  and  _361
REMARK  151  A    between atoms: _360  and  _363
REMARK  152  A    between atoms: _363  and  _364
REMARK  153  A    between atoms: _367  and  _369
REMARK  154  A    between atoms: _369  and  _370
REMARK  155  A    between atoms: _372  and  _374
REMARK  156  A    between atoms: _374  and  _375
REMARK  157  A    between atoms: _374  and  _377
REMARK  158  A    between atoms: _377  and  _378
REMARK  159  A    between atoms: _378  and  _379
REMARK  160  A    between atoms: _379  and  _380
REMARK  161  A    between atoms: _380  and  _381
REMARK  162  A    between atoms: _386  and  _387
REMARK  163  A    between atoms: _392  and  _394
REMARK  164  A    between atoms: _394  and  _395
REMARK  165  A    between atoms: _398  and  _400
REMARK  166  A    between atoms: _400  and  _401
REMARK  167  A    between atoms: _400  and  _403
REMARK  168  A    between atoms: _405  and  _407
REMARK  169  A    between atoms: _407  and  _408
REMARK  170  A    between atoms: _411  and  _413
REMARK  171  A    between atoms: _413  and  _414
REMARK  172  A    between atoms: _413  and  _416
REMARK  173  A    between atoms: _416  and  _417
REMARK  174  A    between atoms: _419  and  _421
REMARK  175  A    between atoms: _421  and  _422
REMARK  176  A    between atoms: _421  and  _424
REMARK  177  A    between atoms: _424  and  _425
REMARK  178  A    between atoms: _428  and  _430
REMARK  179  A    between atoms: _430  and  _431
REMARK  180  A    between atoms: _430  and  _433
REMARK  181  A    between atoms: _433  and  _434
REMARK  182  A    between atoms: _437  and  _439
REMARK  183  A    between atoms: _439  and  _440
REMARK  184  A    between atoms: _439  and  _442
REMARK  185  A    between atoms: _442  and  _443
REMARK  186  A    between atoms: _443  and  _444
REMARK  187  A    between atoms: _449  and  _451
REMARK  188  A    between atoms: _451  and  _452
REMARK  189  A    between atoms: _451  and  _454
REMARK  190  A    between atoms: _454  and  _455
REMARK  191  A    between atoms: _461  and  _463
REMARK  192  A    between atoms: _463  and  _464
REMARK  193  A    between atoms: _463  and  _466
REMARK  194  A    between atoms: _466  and  _467
REMARK  195  A    between atoms: _467  and  _468
REMARK  196  A    between atoms: _468  and  _469
REMARK  197  A    between atoms: _469  and  _470
REMARK  198  A    between atoms: _474  and  _476
REMARK  199  A    between atoms: _476  and  _477
REMARK  200  A    between atoms: _476  and  _479
REMARK  201  A    between atoms: _479  and  _480
REMARK  202  A    between atoms: _485  and  _487
REMARK  203  A    between atoms: _487  and  _488
REMARK  204  A    between atoms: _487  and  _490
REMARK  205  A    between atoms: _490  and  _491
REMARK  206  A    between atoms: _497  and  _499
REMARK  207  A    between atoms: _499  and  _500
REMARK  208  A    between atoms: _499  and  _502
REMARK  209  A    between atoms: _502  and  _503
REMARK  210  A    between atoms: _503  and  _504
REMARK  211  A    between atoms: _507  and  _509
REMARK  212  A    between atoms: _509  and  _510
REMARK  213  A    between atoms: _509  and  _512
REMARK  214  A    between atoms: _512  and  _513
REMARK  215  A    between atoms: _513  and  _514
REMARK  216  A    between atoms: _519  and  _521
REMARK  217  A    between atoms: _521  and  _522
REMARK  218  A    between atoms: _521  and  _524
REMARK  219  A    between atoms: _524  and  _525
REMARK  220  A    between atoms: _525  and  _526
REMARK  221  A    between atoms: _526  and  _527
REMARK  222  A    between atoms: _536  and  _538
REMARK  223  A    between atoms: _538  and  _539
REMARK                            x       y       z     vdW  Elec       q    Type
REMARK                         _______ _______ _______ _____ _____    ______ ____
ROOT
ATOM      1  O   HOH     1      19.259   4.092  16.478  0.00  0.00    +0.000 OA
ENDROOT
TORSDOF 0
REMARK  Name = ../refined-set-2016/2jfh/2jfh_pocket.pdb
REMARK  223 active torsions:
REMARK  status: ('A' for Active; 'I' for Inactive)
REMARK    1  A    between atoms: _1  and  _3
REMARK    2  A    between atoms: _3  and  _4
REMARK    3  A    between atoms: _3  and  _6
REMARK    4  A    between atoms: _6  and  _7
REMARK    5  A    between atoms: _10  and  _12
REMARK    6  A    between atoms: _12  and  _13
REMARK    7  A    between atoms: _12  and  _15
REMARK    8  A    between atoms: _15  and  _16
REMARK    9  A    between atoms: _19  and  _21
REMARK   10  A    between atoms: _21  and  _22
REMARK   11  A    between atoms: _24  and  _26
REMARK   12  A    between atoms: _26  and  _27
REMARK   13  A    between atoms: _26  and  _29
REMARK   14  A    between atoms: _29  and  _30
REMARK   15  A    between atoms: _33  and  _35
REMARK   16  A    between atoms: _35  and  _36
REMARK   17  A    between atoms: _38  and  _40
REMARK   18  A    between atoms: _40  and  _41
REMARK   19  A    between atoms: _40  and  _43
REMARK   20  A    between atoms: _43  and  _44
REMARK   21  A    between atoms: _47  and  _49
REMARK   22  A    between atoms: _49  and  _50
REMARK   23  A    between atoms: _49  and  _52
REMARK   24  A    between atoms: _52  and  _53
REMARK   25  A    between atoms: _53  and  _54
REMARK   26  A    between atoms: _56  and  _58
REMARK   27  A    between atoms: _58  and  _59
REMARK   28  A    between atoms: _58  and  _61
REMARK   29  A    between atoms: _61  and  _62
REMARK   30  A    between atoms: _65  and  _67
REMARK   31  A    between atoms: _67  and  _68
REMARK   32  A    between atoms: _67  and  _70
REMARK   33  A    between atoms: _70  and  _71
REMARK   34  A    between atoms: _74  and  _76
REMARK   35  A    between atoms: _76  and  _77
REMARK   36  A    between atoms: _76  and  _79
REMARK   37  A    between atoms: _79  and  _80
REMARK   38  A    between atoms: _80  and  _81
REMARK   39  A    between atoms: _81  and  _82
REMARK   40  A    between atoms: _92  and  _93
REMARK   41  A    between atoms: _99  and  _100
REMARK   42  A    between atoms: _105  and  _107
REMARK   43  A    between atoms: _107  and  _108
REMARK   44  A    between atoms: _110  and  _112
REMARK   45  A    between atoms: _112  and  _113
REMARK   46  A    between atoms: _112  and  _115
REMARK   47  A    between atoms: _115  and  _116
REMARK   48  A    between atoms: _118  and  _120
REMARK   49  A    between atoms: _120  and  _121
REMARK   50  A    between atoms: _120  and  _123
REMARK   51  A    between atoms: _123  and  _124
REMARK   52  A    between atoms: _127  and  _129
REMARK   53  A    between atoms: _129  and  _130
REMARK   54  A    between atoms: _133  and  _135
REMARK   55  A    between atoms: _135  and  _136
REMARK   56  A    between atoms: _135  and  _138
REMARK   57  A    between atoms: _138  and  _139
REMARK   58  A    between atoms: _142  and  _143
REMARK   59  A    between atoms: _148  and  _150
REMARK   60  A    between atoms: _150  and  _151
REMARK   61  A    between atoms: _153  and  _155
REMARK   62  A    between atoms: _155  and  _156
REMARK   63  A    between atoms: _155  and  _158
REMARK   64  A    between atoms: _158  and  _159
REMARK   65  A    between atoms: _162  and  _164
REMARK   66  A    between atoms: _164  and  _165
REMARK   67  A    between atoms: _168  and  _170
REMARK   68  A    between atoms: _170  and  _171
REMARK   69  A    between atoms: _170  and  _173
REMARK   70  A    between atoms: _173  and  _174
REMARK   71  A    between atoms: _179  and  _181
REMARK   72  A    between atoms: _181  and  _182
REMARK   73  A    between atoms: _181  and  _184
REMARK   74  A    between atoms: _184  and  _185
REMARK   75  A    between atoms: _187  and  _189
REMARK   76  A    between atoms: _189  and  _190
REMARK   77  A    between atoms: _189  and  _192
REMARK   78  A    between atoms: _192  and  _193
REMARK   79  A    between atoms: _193  and  _194
REMARK   80  A    between atoms: _194  and  _195
REMARK   81  A    between atoms: _195  and  _196
REMARK   82  A    between atoms: _200  and  _202
REMARK   83  A    between atoms: _202  and  _203
REMARK   84  A    between atoms: _202  and  _205
REMARK   85  A    between atoms: _205  and  _206
REMARK   86  A    between atoms: _211  and  _213
REMARK   87  A    between atoms: _213  and  _214
REMARK   88  A    between atoms: _213  and  _216
REMARK   89  A    between atoms: _216  and  _217
REMARK   90  A    between atoms: _219  and  _221
REMARK   91  A    between atoms: _221  and  _222
REMARK   92  A    between atoms: _221  and  _224
REMARK   93  A    between atoms: _224  and  _225
REMARK   94  A    between atoms: _227  and  _229
REMARK   95  A    between atoms: _229  and  _230
REMARK   96  A    between atoms: _229  and  _232
REMARK   97  A    between atoms: _232  and  _233
REMARK   98  A    between atoms: _239  and  _241
REMARK   99  A    between atoms: _241  and  _242
REMARK  100  A    between atoms: _241  and  _244
REMARK  101  A    between atoms: _244  and  _245
REMARK  102  A    between atoms: _245  and  _246
REMARK  103  A    between atoms: _251  and  _253
REMARK  104  A    between atoms: _253  and  _254
REMARK  105  A    between atoms: _253  and  _256
REMARK  106  A    between atoms: _256  and  _257
REMARK  107  A    between atoms: _260  and  _262
REMARK  108  A    between atoms: _262  and  _263
REMARK  109  A    between atoms: _262  and  _265
REMARK  110  A    between atoms: _265  and  _266
REMARK  111  A    between atoms: _271  and  _273
REMARK  112  A    between atoms: _273  and  _274
REMARK  113  A    between atoms: _273  and  _276
REMARK  114  A    between atoms: _276  and  _277
REMARK  115  A    between atoms: _280  and  _282
REMARK  116  A    between atoms: _282  and  _283
REMARK  117  A    between atoms: _282  and  _285
REMARK  118  A    between atoms: _285  and  _286
REMARK  119  A    between atoms: _286  and  _287
REMARK  120  A    between atoms: _287  and  _288
REMARK  121  A    between atoms: _297  and  _299
REMARK  122  A    between atoms: _299  and  _300
REMARK  123  A    between atoms: _299  and  _306
REMARK  124  A    between atoms: _300  and  _301
REMARK  125  A    between atoms: _301  and  _302
REMARK  126  A    between atoms: _302  and  _303
REMARK  127  A    between atoms: _303  and  _304
REMARK  128  A    between atoms: _311  and  _313
REMARK  129  A    between atoms: _313  and  _314
REMARK  130  A    between atoms: _313  and  _316
REMARK  131  A    between atoms: _316  and  _317
REMARK  132  A    between atoms: _319  and  _321
REMARK  133  A    between atoms: _321  and  _322
REMARK  134  A    between atoms: _321  and  _324
REMARK  135  A    between atoms: _324  and  _325
REMARK  136  A    between atoms: _325  and  _326
REMARK  137  A    between atoms: _326  and  _327
REMARK  138  A    between atoms: _327  and  _328
REMARK  139  A    between atoms: _332  and  _334
REMARK  140  A    between atoms: _334  and  _335
REMARK  141  A    between atoms: _338  and  _340
REMARK  142  A    between atoms: _340  and  _341
REMARK  143  A    between atoms: _340  and  _343
REMARK  144  A    between atoms: _343  and  _344
REMARK  145  A    between atoms: _347  and  _349
REMARK  146  A    between atoms: _349  and  _350
REMARK  147  A    between atoms: _349  and  _352
REMARK  148  A    between atoms: _352  and  _353
REMARK  149  A    between atoms: _358  and  _360
REMARK  150  A    between atoms: _360  and  _361
REMARK  151  A    between atoms: _360  and  _363
REMARK  152  A    between atoms: _363  and  _364
REMARK  153  A    between atoms: _367  and  _369
REMARK  154  A    between atoms: _369  and  _370
REMARK  155  A    between atoms: _372  and  _374
REMARK  156  A    between atoms: _374  and  _375
REMARK  157  A    between atoms: _374  and  _377
REMARK  158  A    between atoms: _377  and  _378
REMARK  159  A    between atoms: _378  and  _379
REMARK  160  A    between atoms: _379  and  _380
REMARK  161  A    between atoms: _380  and  _381
REMARK  162  A    between atoms: _386  and  _387
REMARK  163  A    between atoms: _392  and  _394
REMARK  164  A    between atoms: _394  and  _395
REMARK  165  A    between atoms: _398  and  _400
REMARK  166  A    between atoms: _400  and  _401
REMARK  167  A    between atoms: _400  and  _403
REMARK  168  A    between atoms: _405  and  _407
REMARK  169  A    between atoms: _407  and  _408
REMARK  170  A    between atoms: _411  and  _413
REMARK  171  A    between atoms: _413  and  _414
REMARK  172  A    between atoms: _413  and  _416
REMARK  173  A    between atoms: _416  and  _417
REMARK  174  A    between atoms: _419  and  _421
REMARK  175  A    between atoms: _421  and  _422
REMARK  176  A    between atoms: _421  and  _424
REMARK  177  A    between atoms: _424  and  _425
REMARK  178  A    between atoms: _428  and  _430
REMARK  179  A    between atoms: _430  and  _431
REMARK  180  A    between atoms: _430  and  _433
REMARK  181  A    between atoms: _433  and  _434
REMARK  182  A    between atoms: _437  and  _439
REMARK  183  A    between atoms: _439  and  _440
REMARK  184  A    between atoms: _439  and  _442
REMARK  185  A    between atoms: _442  and  _443
REMARK  186  A    between atoms: _443  and  _444
REMARK  187  A    between atoms: _449  and  _451
REMARK  188  A    between atoms: _451  and  _452
REMARK  189  A    between atoms: _451  and  _454
REMARK  190  A    between atoms: _454  and  _455
REMARK  191  A    between atoms: _461  and  _463
REMARK  192  A    between atoms: _463  and  _464
REMARK  193  A    between atoms: _463  and  _466
REMARK  194  A    between atoms: _466  and  _467
REMARK  195  A    between atoms: _467  and  _468
REMARK  196  A    between atoms: _468  and  _469
REMARK  197  A    between atoms: _469  and  _470
REMARK  198  A    between atoms: _474  and  _476
REMARK  199  A    between atoms: _476  and  _477
REMARK  200  A    between atoms: _476  and  _479
REMARK  201  A    between atoms: _479  and  _480
REMARK  202  A    between atoms: _485  and  _487
REMARK  203  A    between atoms: _487  and  _488
REMARK  204  A    between atoms: _487  and  _490
REMARK  205  A    between atoms: _490  and  _491
REMARK  206  A    between atoms: _497  and  _499
REMARK  207  A    between atoms: _499  and  _500
REMARK  208  A    between atoms: _499  and  _502
REMARK  209  A    between atoms: _502  and  _503
REMARK  210  A    between atoms: _503  and  _504
REMARK  211  A    between atoms: _507  and  _509
REMARK  212  A    between atoms: _509  and  _510
REMARK  213  A    between atoms: _509  and  _512
REMARK  214  A    between atoms: _512  and  _513
REMARK  215  A    between atoms: _513  and  _514
REMARK  216  A    between atoms: _519  and  _521
REMARK  217  A    between atoms: _521  and  _522
REMARK  218  A    between atoms: _521  and  _524
REMARK  219  A    between atoms: _524  and  _525
REMARK  220  A    between atoms: _525  and  _526
REMARK  221  A    between atoms: _526  and  _527
REMARK  222  A    between atoms: _536  and  _538
REMARK  223  A    between atoms: _538  and  _539
REMARK                            x       y       z     vdW  Elec       q    Type
REMARK                         _______ _______ _______ _____ _____    ______ ____
ROOT
ATOM      1  O   HOH     1       9.282   7.930  19.932  0.00  0.00    +0.000 OA
ENDROOT
TORSDOF 0
REMARK  Name = ../refined-set-2016/2jfh/2jfh_pocket.pdb
REMARK  223 active torsions:
REMARK  status: ('A' for Active; 'I' for Inactive)
REMARK    1  A    between atoms: _1  and  _3
REMARK    2  A    between atoms: _3  and  _4
REMARK    3  A    between atoms: _3  and  _6
REMARK    4  A    between atoms: _6  and  _7
REMARK    5  A    between atoms: _10  and  _12
REMARK    6  A    between atoms: _12  and  _13
REMARK    7  A    between atoms: _12  and  _15
REMARK    8  A    between atoms: _15  and  _16
REMARK    9  A    between atoms: _19  and  _21
REMARK   10  A    between atoms: _21  and  _22
REMARK   11  A    between atoms: _24  and  _26
REMARK   12  A    between atoms: _26  and  _27
REMARK   13  A    between atoms: _26  and  _29
REMARK   14  A    between atoms: _29  and  _30
REMARK   15  A    between atoms: _33  and  _35
REMARK   16  A    between atoms: _35  and  _36
REMARK   17  A    between atoms: _38  and  _40
REMARK   18  A    between atoms: _40  and  _41
REMARK   19  A    between atoms: _40  and  _43
REMARK   20  A    between atoms: _43  and  _44
REMARK   21  A    between atoms: _47  and  _49
REMARK   22  A    between atoms: _49  and  _50
REMARK   23  A    between atoms: _49  and  _52
REMARK   24  A    between atoms: _52  and  _53
REMARK   25  A    between atoms: _53  and  _54
REMARK   26  A    between atoms: _56  and  _58
REMARK   27  A    between atoms: _58  and  _59
REMARK   28  A    between atoms: _58  and  _61
REMARK   29  A    between atoms: _61  and  _62
REMARK   30  A    between atoms: _65  and  _67
REMARK   31  A    between atoms: _67  and  _68
REMARK   32  A    between atoms: _67  and  _70
REMARK   33  A    between atoms: _70  and  _71
REMARK   34  A    between atoms: _74  and  _76
REMARK   35  A    between atoms: _76  and  _77
REMARK   36  A    between atoms: _76  and  _79
REMARK   37  A    between atoms: _79  and  _80
REMARK   38  A    between atoms: _80  and  _81
REMARK   39  A    between atoms: _81  and  _82
REMARK   40  A    between atoms: _92  and  _93
REMARK   41  A    between atoms: _99  and  _100
REMARK   42  A    between atoms: _105  and  _107
REMARK   43  A    between atoms: _107  and  _108
REMARK   44  A    between atoms: _110  and  _112
REMARK   45  A    between atoms: _112  and  _113
REMARK   46  A    between atoms: _112  and  _115
REMARK   47  A    between atoms: _115  and  _116
REMARK   48  A    between atoms: _118  and  _120
REMARK   49  A    between atoms: _120  and  _121
REMARK   50  A    between atoms: _120  and  _123
REMARK   51  A    between atoms: _123  and  _124
REMARK   52  A    between atoms: _127  and  _129
REMARK   53  A    between atoms: _129  and  _130
REMARK   54  A    between atoms: _133  and  _135
REMARK   55  A    between atoms: _135  and  _136
REMARK   56  A    between atoms: _135  and  _138
REMARK   57  A    between atoms: _138  and  _139
REMARK   58  A    between atoms: _142  and  _143
REMARK   59  A    between atoms: _148  and  _150
REMARK   60  A    between atoms: _150  and  _151
REMARK   61  A    between atoms: _153  and  _155
REMARK   62  A    between atoms: _155  and  _156
REMARK   63  A    between atoms: _155  and  _158
REMARK   64  A    between atoms: _158  and  _159
REMARK   65  A    between atoms: _162  and  _164
REMARK   66  A    between atoms: _164  and  _165
REMARK   67  A    between atoms: _168  and  _170
REMARK   68  A    between atoms: _170  and  _171
REMARK   69  A    between atoms: _170  and  _173
REMARK   70  A    between atoms: _173  and  _174
REMARK   71  A    between atoms: _179  and  _181
REMARK   72  A    between atoms: _181  and  _182
REMARK   73  A    between atoms: _181  and  _184
REMARK   74  A    between atoms: _184  and  _185
REMARK   75  A    between atoms: _187  and  _189
REMARK   76  A    between atoms: _189  and  _190
REMARK   77  A    between atoms: _189  and  _192
REMARK   78  A    between atoms: _192  and  _193
REMARK   79  A    between atoms: _193  and  _194
REMARK   80  A    between atoms: _194  and  _195
REMARK   81  A    between atoms: _195  and  _196
REMARK   82  A    between atoms: _200  and  _202
REMARK   83  A    between atoms: _202  and  _203
REMARK   84  A    between atoms: _202  and  _205
REMARK   85  A    between atoms: _205  and  _206
REMARK   86  A    between atoms: _211  and  _213
REMARK   87  A    between atoms: _213  and  _214
REMARK   88  A    between atoms: _213  and  _216
REMARK   89  A    between atoms: _216  and  _217
REMARK   90  A    between atoms: _219  and  _221
REMARK   91  A    between atoms: _221  and  _222
REMARK   92  A    between atoms: _221  and  _224
REMARK   93  A    between atoms: _224  and  _225
REMARK   94  A    between atoms: _227  and  _229
REMARK   95  A    between atoms: _229  and  _230
REMARK   96  A    between atoms: _229  and  _232
REMARK   97  A    between atoms: _232  and  _233
REMARK   98  A    between atoms: _239  and  _241
REMARK   99  A    between atoms: _241  and  _242
REMARK  100  A    between atoms: _241  and  _244
REMARK  101  A    between atoms: _244  and  _245
REMARK  102  A    between atoms: _245  and  _246
REMARK  103  A    between atoms: _251  and  _253
REMARK  104  A    between atoms: _253  and  _254
REMARK  105  A    between atoms: _253  and  _256
REMARK  106  A    between atoms: _256  and  _257
REMARK  107  A    between atoms: _260  and  _262
REMARK  108  A    between atoms: _262  and  _263
REMARK  109  A    between atoms: _262  and  _265
REMARK  110  A    between atoms: _265  and  _266
REMARK  111  A    between atoms: _271  and  _273
REMARK  112  A    between atoms: _273  and  _274
REMARK  113  A    between atoms: _273  and  _276
REMARK  114  A    between atoms: _276  and  _277
REMARK  115  A    between atoms: _280  and  _282
REMARK  116  A    between atoms: _282  and  _283
REMARK  117  A    between atoms: _282  and  _285
REMARK  118  A    between atoms: _285  and  _286
REMARK  119  A    between atoms: _286  and  _287
REMARK  120  A    between atoms: _287  and  _288
REMARK  121  A    between atoms: _297  and  _299
REMARK  122  A    between atoms: _299  and  _300
REMARK  123  A    between atoms: _299  and  _306
REMARK  124  A    between atoms: _300  and  _301
REMARK  125  A    between atoms: _301  and  _302
REMARK  126  A    between atoms: _302  and  _303
REMARK  127  A    between atoms: _303  and  _304
REMARK  128  A    between atoms: _311  and  _313
REMARK  129  A    between atoms: _313  and  _314
REMARK  130  A    between atoms: _313  and  _316
REMARK  131  A    between atoms: _316  and  _317
REMARK  132  A    between atoms: _319  and  _321
REMARK  133  A    between atoms: _321  and  _322
REMARK  134  A    between atoms: _321  and  _324
REMARK  135  A    between atoms: _324  and  _325
REMARK  136  A    between atoms: _325  and  _326
REMARK  137  A    between atoms: _326  and  _327
REMARK  138  A    between atoms: _327  and  _328
REMARK  139  A    between atoms: _332  and  _334
REMARK  140  A    between atoms: _334  and  _335
REMARK  141  A    between atoms: _338  and  _340
REMARK  142  A    between atoms: _340  and  _341
REMARK  143  A    between atoms: _340  and  _343
REMARK  144  A    between atoms: _343  and  _344
REMARK  145  A    between atoms: _347  and  _349
REMARK  146  A    between atoms: _349  and  _350
REMARK  147  A    between atoms: _349  and  _352
REMARK  148  A    between atoms: _352  and  _353
REMARK  149  A    between atoms: _358  and  _360
REMARK  150  A    between atoms: _360  and  _361
REMARK  151  A    between atoms: _360  and  _363
REMARK  152  A    between atoms: _363  and  _364
REMARK  153  A    between atoms: _367  and  _369
REMARK  154  A    between atoms: _369  and  _370
REMARK  155  A    between atoms: _372  and  _374
REMARK  156  A    between atoms: _374  and  _375
REMARK  157  A    between atoms: _374  and  _377
REMARK  158  A    between atoms: _377  and  _378
REMARK  159  A    between atoms: _378  and  _379
REMARK  160  A    between atoms: _379  and  _380
REMARK  161  A    between atoms: _380  and  _381
REMARK  162  A    between atoms: _386  and  _387
REMARK  163  A    between atoms: _392  and  _394
REMARK  164  A    between atoms: _394  and  _395
REMARK  165  A    between atoms: _398  and  _400
REMARK  166  A    between atoms: _400  and  _401
REMARK  167  A    between atoms: _400  and  _403
REMARK  168  A    between atoms: _405  and  _407
REMARK  169  A    between atoms: _407  and  _408
REMARK  170  A    between atoms: _411  and  _413
REMARK  171  A    between atoms: _413  and  _414
REMARK  172  A    between atoms: _413  and  _416
REMARK  173  A    between atoms: _416  and  _417
REMARK  174  A    between atoms: _419  and  _421
REMARK  175  A    between atoms: _421  and  _422
REMARK  176  A    between atoms: _421  and  _424
REMARK  177  A    between atoms: _424  and  _425
REMARK  178  A    between atoms: _428  and  _430
REMARK  179  A    between atoms: _430  and  _431
REMARK  180  A    between atoms: _430  and  _433
REMARK  181  A    between atoms: _433  and  _434
REMARK  182  A    between atoms: _437  and  _439
REMARK  183  A    between atoms: _439  and  _440
REMARK  184  A    between atoms: _439  and  _442
REMARK  185  A    between atoms: _442  and  _443
REMARK  186  A    between atoms: _443  and  _444
REMARK  187  A    between atoms: _449  and  _451
REMARK  188  A    between atoms: _451  and  _452
REMARK  189  A    between atoms: _451  and  _454
REMARK  190  A    between atoms: _454  and  _455
REMARK  191  A    between atoms: _461  and  _463
REMARK  192  A    between atoms: _463  and  _464
REMARK  193  A    between atoms: _463  and  _466
REMARK  194  A    between atoms: _466  and  _467
REMARK  195  A    between atoms: _467  and  _468
REMARK  196  A    between atoms: _468  and  _469
REMARK  197  A    between atoms: _469  and  _470
REMARK  198  A    between atoms: _474  and  _476
REMARK  199  A    between atoms: _476  and  _477
REMARK  200  A    between atoms: _476  and  _479
REMARK  201  A    between atoms: _479  and  _480
REMARK  202  A    between atoms: _485  and  _487
REMARK  203  A    between atoms: _487  and  _488
REMARK  204  A    between atoms: _487  and  _490
REMARK  205  A    between atoms: _490  and  _491
REMARK  206  A    between atoms: _497  and  _499
REMARK  207  A    between atoms: _499  and  _500
REMARK  208  A    between atoms: _499  and  _502
REMARK  209  A    between atoms: _502  and  _503
REMARK  210  A    between atoms: _503  and  _504
REMARK  211  A    between atoms: _507  and  _509
REMARK  212  A    between atoms: _509  and  _510
REMARK  213  A    between atoms: _509  and  _512
REMARK  214  A    between atoms: _512  and  _513
REMARK  215  A    between atoms: _513  and  _514
REMARK  216  A    between atoms: _519  and  _521
REMARK  217  A    between atoms: _521  and  _522
REMARK  218  A    between atoms: _521  and  _524
REMARK  219  A    between atoms: _524  and  _525
REMARK  220  A    between atoms: _525  and  _526
REMARK  221  A    between atoms: _526  and  _527
REMARK  222  A    between atoms: _536  and  _538
REMARK  223  A    between atoms: _538  and  _539
REMARK                            x       y       z     vdW  Elec       q    Type
REMARK                         _______ _______ _______ _____ _____    ______ ____
ROOT
ATOM      1  O   HOH     1      20.690  -0.423  12.550  0.00  0.00    +0.000 OA
ENDROOT
TORSDOF 0
REMARK  Name = ../refined-set-2016/2jfh/2jfh_pocket.pdb
REMARK  223 active torsions:
REMARK  status: ('A' for Active; 'I' for Inactive)
REMARK    1  A    between atoms: _1  and  _3
REMARK    2  A    between atoms: _3  and  _4
REMARK    3  A    between atoms: _3  and  _6
REMARK    4  A    between atoms: _6  and  _7
REMARK    5  A    between atoms: _10  and  _12
REMARK    6  A    between atoms: _12  and  _13
REMARK    7  A    between atoms: _12  and  _15
REMARK    8  A    between atoms: _15  and  _16
REMARK    9  A    between atoms: _19  and  _21
REMARK   10  A    between atoms: _21  and  _22
REMARK   11  A    between atoms: _24  and  _26
REMARK   12  A    between atoms: _26  and  _27
REMARK   13  A    between atoms: _26  and  _29
REMARK   14  A    between atoms: _29  and  _30
REMARK   15  A    between atoms: _33  and  _35
REMARK   16  A    between atoms: _35  and  _36
REMARK   17  A    between atoms: _38  and  _40
REMARK   18  A    between atoms: _40  and  _41
REMARK   19  A    between atoms: _40  and  _43
REMARK   20  A    between atoms: _43  and  _44
REMARK   21  A    between atoms: _47  and  _49
REMARK   22  A    between atoms: _49  and  _50
REMARK   23  A    between atoms: _49  and  _52
REMARK   24  A    between atoms: _52  and  _53
REMARK   25  A    between atoms: _53  and  _54
REMARK   26  A    between atoms: _56  and  _58
REMARK   27  A    between atoms: _58  and  _59
REMARK   28  A    between atoms: _58  and  _61
REMARK   29  A    between atoms: _61  and  _62
REMARK   30  A    between atoms: _65  and  _67
REMARK   31  A    between atoms: _67  and  _68
REMARK   32  A    between atoms: _67  and  _70
REMARK   33  A    between atoms: _70  and  _71
REMARK   34  A    between atoms: _74  and  _76
REMARK   35  A    between atoms: _76  and  _77
REMARK   36  A    between atoms: _76  and  _79
REMARK   37  A    between atoms: _79  and  _80
REMARK   38  A    between atoms: _80  and  _81
REMARK   39  A    between atoms: _81  and  _82
REMARK   40  A    between atoms: _92  and  _93
REMARK   41  A    between atoms: _99  and  _100
REMARK   42  A    between atoms: _105  and  _107
REMARK   43  A    between atoms: _107  and  _108
REMARK   44  A    between atoms: _110  and  _112
REMARK   45  A    between atoms: _112  and  _113
REMARK   46  A    between atoms: _112  and  _115
REMARK   47  A    between atoms: _115  and  _116
REMARK   48  A    between atoms: _118  and  _120
REMARK   49  A    between atoms: _120  and  _121
REMARK   50  A    between atoms: _120  and  _123
REMARK   51  A    between atoms: _123  and  _124
REMARK   52  A    between atoms: _127  and  _129
REMARK   53  A    between atoms: _129  and  _130
REMARK   54  A    between atoms: _133  and  _135
REMARK   55  A    between atoms: _135  and  _136
REMARK   56  A    between atoms: _135  and  _138
REMARK   57  A    between atoms: _138  and  _139
REMARK   58  A    between atoms: _142  and  _143
REMARK   59  A    between atoms: _148  and  _150
REMARK   60  A    between atoms: _150  and  _151
REMARK   61  A    between atoms: _153  and  _155
REMARK   62  A    between atoms: _155  and  _156
REMARK   63  A    between atoms: _155  and  _158
REMARK   64  A    between atoms: _158  and  _159
REMARK   65  A    between atoms: _162  and  _164
REMARK   66  A    between atoms: _164  and  _165
REMARK   67  A    between atoms: _168  and  _170
REMARK   68  A    between atoms: _170  and  _171
REMARK   69  A    between atoms: _170  and  _173
REMARK   70  A    between atoms: _173  and  _174
REMARK   71  A    between atoms: _179  and  _181
REMARK   72  A    between atoms: _181  and  _182
REMARK   73  A    between atoms: _181  and  _184
REMARK   74  A    between atoms: _184  and  _185
REMARK   75  A    between atoms: _187  and  _189
REMARK   76  A    between atoms: _189  and  _190
REMARK   77  A    between atoms: _189  and  _192
REMARK   78  A    between atoms: _192  and  _193
REMARK   79  A    between atoms: _193  and  _194
REMARK   80  A    between atoms: _194  and  _195
REMARK   81  A    between atoms: _195  and  _196
REMARK   82  A    between atoms: _200  and  _202
REMARK   83  A    between atoms: _202  and  _203
REMARK   84  A    between atoms: _202  and  _205
REMARK   85  A    between atoms: _205  and  _206
REMARK   86  A    between atoms: _211  and  _213
REMARK   87  A    between atoms: _213  and  _214
REMARK   88  A    between atoms: _213  and  _216
REMARK   89  A    between atoms: _216  and  _217
REMARK   90  A    between atoms: _219  and  _221
REMARK   91  A    between atoms: _221  and  _222
REMARK   92  A    between atoms: _221  and  _224
REMARK   93  A    between atoms: _224  and  _225
REMARK   94  A    between atoms: _227  and  _229
REMARK   95  A    between atoms: _229  and  _230
REMARK   96  A    between atoms: _229  and  _232
REMARK   97  A    between atoms: _232  and  _233
REMARK   98  A    between atoms: _239  and  _241
REMARK   99  A    between atoms: _241  and  _242
REMARK  100  A    between atoms: _241  and  _244
REMARK  101  A    between atoms: _244  and  _245
REMARK  102  A    between atoms: _245  and  _246
REMARK  103  A    between atoms: _251  and  _253
REMARK  104  A    between atoms: _253  and  _254
REMARK  105  A    between atoms: _253  and  _256
REMARK  106  A    between atoms: _256  and  _257
REMARK  107  A    between atoms: _260  and  _262
REMARK  108  A    between atoms: _262  and  _263
REMARK  109  A    between atoms: _262  and  _265
REMARK  110  A    between atoms: _265  and  _266
REMARK  111  A    between atoms: _271  and  _273
REMARK  112  A    between atoms: _273  and  _274
REMARK  113  A    between atoms: _273  and  _276
REMARK  114  A    between atoms: _276  and  _277
REMARK  115  A    between atoms: _280  and  _282
REMARK  116  A    between atoms: _282  and  _283
REMARK  117  A    between atoms: _282  and  _285
REMARK  118  A    between atoms: _285  and  _286
REMARK  119  A    between atoms: _286  and  _287
REMARK  120  A    between atoms: _287  and  _288
REMARK  121  A    between atoms: _297  and  _299
REMARK  122  A    between atoms: _299  and  _300
REMARK  123  A    between atoms: _299  and  _306
REMARK  124  A    between atoms: _300  and  _301
REMARK  125  A    between atoms: _301  and  _302
REMARK  126  A    between atoms: _302  and  _303
REMARK  127  A    between atoms: _303  and  _304
REMARK  128  A    between atoms: _311  and  _313
REMARK  129  A    between atoms: _313  and  _314
REMARK  130  A    between atoms: _313  and  _316
REMARK  131  A    between atoms: _316  and  _317
REMARK  132  A    between atoms: _319  and  _321
REMARK  133  A    between atoms: _321  and  _322
REMARK  134  A    between atoms: _321  and  _324
REMARK  135  A    between atoms: _324  and  _325
REMARK  136  A    between atoms: _325  and  _326
REMARK  137  A    between atoms: _326  and  _327
REMARK  138  A    between atoms: _327  and  _328
REMARK  139  A    between atoms: _332  and  _334
REMARK  140  A    between atoms: _334  and  _335
REMARK  141  A    between atoms: _338  and  _340
REMARK  142  A    between atoms: _340  and  _341
REMARK  143  A    between atoms: _340  and  _343
REMARK  144  A    between atoms: _343  and  _344
REMARK  145  A    between atoms: _347  and  _349
REMARK  146  A    between atoms: _349  and  _350
REMARK  147  A    between atoms: _349  and  _352
REMARK  148  A    between atoms: _352  and  _353
REMARK  149  A    between atoms: _358  and  _360
REMARK  150  A    between atoms: _360  and  _361
REMARK  151  A    between atoms: _360  and  _363
REMARK  152  A    between atoms: _363  and  _364
REMARK  153  A    between atoms: _367  and  _369
REMARK  154  A    between atoms: _369  and  _370
REMARK  155  A    between atoms: _372  and  _374
REMARK  156  A    between atoms: _374  and  _375
REMARK  157  A    between atoms: _374  and  _377
REMARK  158  A    between atoms: _377  and  _378
REMARK  159  A    between atoms: _378  and  _379
REMARK  160  A    between atoms: _379  and  _380
REMARK  161  A    between atoms: _380  and  _381
REMARK  162  A    between atoms: _386  and  _387
REMARK  163  A    between atoms: _392  and  _394
REMARK  164  A    between atoms: _394  and  _395
REMARK  165  A    between atoms: _398  and  _400
REMARK  166  A    between atoms: _400  and  _401
REMARK  167  A    between atoms: _400  and  _403
REMARK  168  A    between atoms: _405  and  _407
REMARK  169  A    between atoms: _407  and  _408
REMARK  170  A    between atoms: _411  and  _413
REMARK  171  A    between atoms: _413  and  _414
REMARK  172  A    between atoms: _413  and  _416
REMARK  173  A    between atoms: _416  and  _417
REMARK  174  A    between atoms: _419  and  _421
REMARK  175  A    between atoms: _421  and  _422
REMARK  176  A    between atoms: _421  and  _424
REMARK  177  A    between atoms: _424  and  _425
REMARK  178  A    between atoms: _428  and  _430
REMARK  179  A    between atoms: _430  and  _431
REMARK  180  A    between atoms: _430  and  _433
REMARK  181  A    between atoms: _433  and  _434
REMARK  182  A    between atoms: _437  and  _439
REMARK  183  A    between atoms: _439  and  _440
REMARK  184  A    between atoms: _439  and  _442
REMARK  185  A    between atoms: _442  and  _443
REMARK  186  A    between atoms: _443  and  _444
REMARK  187  A    between atoms: _449  and  _451
REMARK  188  A    between atoms: _451  and  _452
REMARK  189  A    between atoms: _451  and  _454
REMARK  190  A    between atoms: _454  and  _455
REMARK  191  A    between atoms: _461  and  _463
REMARK  192  A    between atoms: _463  and  _464
REMARK  193  A    between atoms: _463  and  _466
REMARK  194  A    between atoms: _466  and  _467
REMARK  195  A    between atoms: _467  and  _468
REMARK  196  A    between atoms: _468  and  _469
REMARK  197  A    between atoms: _469  and  _470
REMARK  198  A    between atoms: _474  and  _476
REMARK  199  A    between atoms: _476  and  _477
REMARK  200  A    between atoms: _476  and  _479
REMARK  201  A    between atoms: _479  and  _480
REMARK  202  A    between atoms: _485  and  _487
REMARK  203  A    between atoms: _487  and  _488
REMARK  204  A    between atoms: _487  and  _490
REMARK  205  A    between atoms: _490  and  _491
REMARK  206  A    between atoms: _497  and  _499
REMARK  207  A    between atoms: _499  and  _500
REMARK  208  A    between atoms: _499  and  _502
REMARK  209  A    between atoms: _502  and  _503
REMARK  210  A    between atoms: _503  and  _504
REMARK  211  A    between atoms: _507  and  _509
REMARK  212  A    between atoms: _509  and  _510
REMARK  213  A    between atoms: _509  and  _512
REMARK  214  A    between atoms: _512  and  _513
REMARK  215  A    between atoms: _513  and  _514
REMARK  216  A    between atoms: _519  and  _521
REMARK  217  A    between atoms: _521  and  _522
REMARK  218  A    between atoms: _521  and  _524
REMARK  219  A    between atoms: _524  and  _525
REMARK  220  A    between atoms: _525  and  _526
REMARK  221  A    between atoms: _526  and  _527
REMARK  222  A    between atoms: _536  and  _538
REMARK  223  A    between atoms: _538  and  _539
REMARK                            x       y       z     vdW  Elec       q    Type
REMARK                         _______ _______ _______ _____ _____    ______ ____
ROOT
ATOM      1  O   HOH     1      16.575   1.157  17.421  0.00  0.00    +0.000 OA
ENDROOT
TORSDOF 0
REMARK  Name = ../refined-set-2016/2jfh/2jfh_pocket.pdb
REMARK  223 active torsions:
REMARK  status: ('A' for Active; 'I' for Inactive)
REMARK    1  A    between atoms: _1  and  _3
REMARK    2  A    between atoms: _3  and  _4
REMARK    3  A    between atoms: _3  and  _6
REMARK    4  A    between atoms: _6  and  _7
REMARK    5  A    between atoms: _10  and  _12
REMARK    6  A    between atoms: _12  and  _13
REMARK    7  A    between atoms: _12  and  _15
REMARK    8  A    between atoms: _15  and  _16
REMARK    9  A    between atoms: _19  and  _21
REMARK   10  A    between atoms: _21  and  _22
REMARK   11  A    between atoms: _24  and  _26
REMARK   12  A    between atoms: _26  and  _27
REMARK   13  A    between atoms: _26  and  _29
REMARK   14  A    between atoms: _29  and  _30
REMARK   15  A    between atoms: _33  and  _35
REMARK   16  A    between atoms: _35  and  _36
REMARK   17  A    between atoms: _38  and  _40
REMARK   18  A    between atoms: _40  and  _41
REMARK   19  A    between atoms: _40  and  _43
REMARK   20  A    between atoms: _43  and  _44
REMARK   21  A    between atoms: _47  and  _49
REMARK   22  A    between atoms: _49  and  _50
REMARK   23  A    between atoms: _49  and  _52
REMARK   24  A    between atoms: _52  and  _53
REMARK   25  A    between atoms: _53  and  _54
REMARK   26  A    between atoms: _56  and  _58
REMARK   27  A    between atoms: _58  and  _59
REMARK   28  A    between atoms: _58  and  _61
REMARK   29  A    between atoms: _61  and  _62
REMARK   30  A    between atoms: _65  and  _67
REMARK   31  A    between atoms: _67  and  _68
REMARK   32  A    between atoms: _67  and  _70
REMARK   33  A    between atoms: _70  and  _71
REMARK   34  A    between atoms: _74  and  _76
REMARK   35  A    between atoms: _76  and  _77
REMARK   36  A    between atoms: _76  and  _79
REMARK   37  A    between atoms: _79  and  _80
REMARK   38  A    between atoms: _80  and  _81
REMARK   39  A    between atoms: _81  and  _82
REMARK   40  A    between atoms: _92  and  _93
REMARK   41  A    between atoms: _99  and  _100
REMARK   42  A    between atoms: _105  and  _107
REMARK   43  A    between atoms: _107  and  _108
REMARK   44  A    between atoms: _110  and  _112
REMARK   45  A    between atoms: _112  and  _113
REMARK   46  A    between atoms: _112  and  _115
REMARK   47  A    between atoms: _115  and  _116
REMARK   48  A    between atoms: _118  and  _120
REMARK   49  A    between atoms: _120  and  _121
REMARK   50  A    between atoms: _120  and  _123
REMARK   51  A    between atoms: _123  and  _124
REMARK   52  A    between atoms: _127  and  _129
REMARK   53  A    between atoms: _129  and  _130
REMARK   54  A    between atoms: _133  and  _135
REMARK   55  A    between atoms: _135  and  _136
REMARK   56  A    between atoms: _135  and  _138
REMARK   57  A    between atoms: _138  and  _139
REMARK   58  A    between atoms: _142  and  _143
REMARK   59  A    between atoms: _148  and  _150
REMARK   60  A    between atoms: _150  and  _151
REMARK   61  A    between atoms: _153  and  _155
REMARK   62  A    between atoms: _155  and  _156
REMARK   63  A    between atoms: _155  and  _158
REMARK   64  A    between atoms: _158  and  _159
REMARK   65  A    between atoms: _162  and  _164
REMARK   66  A    between atoms: _164  and  _165
REMARK   67  A    between atoms: _168  and  _170
REMARK   68  A    between atoms: _170  and  _171
REMARK   69  A    between atoms: _170  and  _173
REMARK   70  A    between atoms: _173  and  _174
REMARK   71  A    between atoms: _179  and  _181
REMARK   72  A    between atoms: _181  and  _182
REMARK   73  A    between atoms: _181  and  _184
REMARK   74  A    between atoms: _184  and  _185
REMARK   75  A    between atoms: _187  and  _189
REMARK   76  A    between atoms: _189  and  _190
REMARK   77  A    between atoms: _189  and  _192
REMARK   78  A    between atoms: _192  and  _193
REMARK   79  A    between atoms: _193  and  _194
REMARK   80  A    between atoms: _194  and  _195
REMARK   81  A    between atoms: _195  and  _196
REMARK   82  A    between atoms: _200  and  _202
REMARK   83  A    between atoms: _202  and  _203
REMARK   84  A    between atoms: _202  and  _205
REMARK   85  A    between atoms: _205  and  _206
REMARK   86  A    between atoms: _211  and  _213
REMARK   87  A    between atoms: _213  and  _214
REMARK   88  A    between atoms: _213  and  _216
REMARK   89  A    between atoms: _216  and  _217
REMARK   90  A    between atoms: _219  and  _221
REMARK   91  A    between atoms: _221  and  _222
REMARK   92  A    between atoms: _221  and  _224
REMARK   93  A    between atoms: _224  and  _225
REMARK   94  A    between atoms: _227  and  _229
REMARK   95  A    between atoms: _229  and  _230
REMARK   96  A    between atoms: _229  and  _232
REMARK   97  A    between atoms: _232  and  _233
REMARK   98  A    between atoms: _239  and  _241
REMARK   99  A    between atoms: _241  and  _242
REMARK  100  A    between atoms: _241  and  _244
REMARK  101  A    between atoms: _244  and  _245
REMARK  102  A    between atoms: _245  and  _246
REMARK  103  A    between atoms: _251  and  _253
REMARK  104  A    between atoms: _253  and  _254
REMARK  105  A    between atoms: _253  and  _256
REMARK  106  A    between atoms: _256  and  _257
REMARK  107  A    between atoms: _260  and  _262
REMARK  108  A    between atoms: _262  and  _263
REMARK  109  A    between atoms: _262  and  _265
REMARK  110  A    between atoms: _265  and  _266
REMARK  111  A    between atoms: _271  and  _273
REMARK  112  A    between atoms: _273  and  _274
REMARK  113  A    between atoms: _273  and  _276
REMARK  114  A    between atoms: _276  and  _277
REMARK  115  A    between atoms: _280  and  _282
REMARK  116  A    between atoms: _282  and  _283
REMARK  117  A    between atoms: _282  and  _285
REMARK  118  A    between atoms: _285  and  _286
REMARK  119  A    between atoms: _286  and  _287
REMARK  120  A    between atoms: _287  and  _288
REMARK  121  A    between atoms: _297  and  _299
REMARK  122  A    between atoms: _299  and  _300
REMARK  123  A    between atoms: _299  and  _306
REMARK  124  A    between atoms: _300  and  _301
REMARK  125  A    between atoms: _301  and  _302
REMARK  126  A    between atoms: _302  and  _303
REMARK  127  A    between atoms: _303  and  _304
REMARK  128  A    between atoms: _311  and  _313
REMARK  129  A    between atoms: _313  and  _314
REMARK  130  A    between atoms: _313  and  _316
REMARK  131  A    between atoms: _316  and  _317
REMARK  132  A    between atoms: _319  and  _321
REMARK  133  A    between atoms: _321  and  _322
REMARK  134  A    between atoms: _321  and  _324
REMARK  135  A    between atoms: _324  and  _325
REMARK  136  A    between atoms: _325  and  _326
REMARK  137  A    between atoms: _326  and  _327
REMARK  138  A    between atoms: _327  and  _328
REMARK  139  A    between atoms: _332  and  _334
REMARK  140  A    between atoms: _334  and  _335
REMARK  141  A    between atoms: _338  and  _340
REMARK  142  A    between atoms: _340  and  _341
REMARK  143  A    between atoms: _340  and  _343
REMARK  144  A    between atoms: _343  and  _344
REMARK  145  A    between atoms: _347  and  _349
REMARK  146  A    between atoms: _349  and  _350
REMARK  147  A    between atoms: _349  and  _352
REMARK  148  A    between atoms: _352  and  _353
REMARK  149  A    between atoms: _358  and  _360
REMARK  150  A    between atoms: _360  and  _361
REMARK  151  A    between atoms: _360  and  _363
REMARK  152  A    between atoms: _363  and  _364
REMARK  153  A    between atoms: _367  and  _369
REMARK  154  A    between atoms: _369  and  _370
REMARK  155  A    between atoms: _372  and  _374
REMARK  156  A    between atoms: _374  and  _375
REMARK  157  A    between atoms: _374  and  _377
REMARK  158  A    between atoms: _377  and  _378
REMARK  159  A    between atoms: _378  and  _379
REMARK  160  A    between atoms: _379  and  _380
REMARK  161  A    between atoms: _380  and  _381
REMARK  162  A    between atoms: _386  and  _387
REMARK  163  A    between atoms: _392  and  _394
REMARK  164  A    between atoms: _394  and  _395
REMARK  165  A    between atoms: _398  and  _400
REMARK  166  A    between atoms: _400  and  _401
REMARK  167  A    between atoms: _400  and  _403
REMARK  168  A    between atoms: _405  and  _407
REMARK  169  A    between atoms: _407  and  _408
REMARK  170  A    between atoms: _411  and  _413
REMARK  171  A    between atoms: _413  and  _414
REMARK  172  A    between atoms: _413  and  _416
REMARK  173  A    between atoms: _416  and  _417
REMARK  174  A    between atoms: _419  and  _421
REMARK  175  A    between atoms: _421  and  _422
REMARK  176  A    between atoms: _421  and  _424
REMARK  177  A    between atoms: _424  and  _425
REMARK  178  A    between atoms: _428  and  _430
REMARK  179  A    between atoms: _430  and  _431
REMARK  180  A    between atoms: _430  and  _433
REMARK  181  A    between atoms: _433  and  _434
REMARK  182  A    between atoms: _437  and  _439
REMARK  183  A    between atoms: _439  and  _440
REMARK  184  A    between atoms: _439  and  _442
REMARK  185  A    between atoms: _442  and  _443
REMARK  186  A    between atoms: _443  and  _444
REMARK  187  A    between atoms: _449  and  _451
REMARK  188  A    between atoms: _451  and  _452
REMARK  189  A    between atoms: _451  and  _454
REMARK  190  A    between atoms: _454  and  _455
REMARK  191  A    between atoms: _461  and  _463
REMARK  192  A    between atoms: _463  and  _464
REMARK  193  A    between atoms: _463  and  _466
REMARK  194  A    between atoms: _466  and  _467
REMARK  195  A    between atoms: _467  and  _468
REMARK  196  A    between atoms: _468  and  _469
REMARK  197  A    between atoms: _469  and  _470
REMARK  198  A    between atoms: _474  and  _476
REMARK  199  A    between atoms: _476  and  _477
REMARK  200  A    between atoms: _476  and  _479
REMARK  201  A    between atoms: _479  and  _480
REMARK  202  A    between atoms: _485  and  _487
REMARK  203  A    between atoms: _487  and  _488
REMARK  204  A    between atoms: _487  and  _490
REMARK  205  A    between atoms: _490  and  _491
REMARK  206  A    between atoms: _497  and  _499
REMARK  207  A    between atoms: _499  and  _500
REMARK  208  A    between atoms: _499  and  _502
REMARK  209  A    between atoms: _502  and  _503
REMARK  210  A    between atoms: _503  and  _504
REMARK  211  A    between atoms: _507  and  _509
REMARK  212  A    between atoms: _509  and  _510
REMARK  213  A    between atoms: _509  and  _512
REMARK  214  A    between atoms: _512  and  _513
REMARK  215  A    between atoms: _513  and  _514
REMARK  216  A    between atoms: _519  and  _521
REMARK  217  A    between atoms: _521  and  _522
REMARK  218  A    between atoms: _521  and  _524
REMARK  219  A    between atoms: _524  and  _525
REMARK  220  A    between atoms: _525  and  _526
REMARK  221  A    between atoms: _526  and  _527
REMARK  222  A    between atoms: _536  and  _538
REMARK  223  A    between atoms: _538  and  _539
REMARK                            x       y       z     vdW  Elec       q    Type
REMARK                         _______ _______ _______ _____ _____    ______ ____
ROOT
ATOM      1  O   HOH     1      15.435   0.894  14.024  0.00  0.00    +0.000 OA
ENDROOT
TORSDOF 0
REMARK  Name = ../refined-set-2016/2jfh/2jfh_pocket.pdb
REMARK  223 active torsions:
REMARK  status: ('A' for Active; 'I' for Inactive)
REMARK    1  A    between atoms: _1  and  _3
REMARK    2  A    between atoms: _3  and  _4
REMARK    3  A    between atoms: _3  and  _6
REMARK    4  A    between atoms: _6  and  _7
REMARK    5  A    between atoms: _10  and  _12
REMARK    6  A    between atoms: _12  and  _13
REMARK    7  A    between atoms: _12  and  _15
REMARK    8  A    between atoms: _15  and  _16
REMARK    9  A    between atoms: _19  and  _21
REMARK   10  A    between atoms: _21  and  _22
REMARK   11  A    between atoms: _24  and  _26
REMARK   12  A    between atoms: _26  and  _27
REMARK   13  A    between atoms: _26  and  _29
REMARK   14  A    between atoms: _29  and  _30
REMARK   15  A    between atoms: _33  and  _35
REMARK   16  A    between atoms: _35  and  _36
REMARK   17  A    between atoms: _38  and  _40
REMARK   18  A    between atoms: _40  and  _41
REMARK   19  A    between atoms: _40  and  _43
REMARK   20  A    between atoms: _43  and  _44
REMARK   21  A    between atoms: _47  and  _49
REMARK   22  A    between atoms: _49  and  _50
REMARK   23  A    between atoms: _49  and  _52
REMARK   24  A    between atoms: _52  and  _53
REMARK   25  A    between atoms: _53  and  _54
REMARK   26  A    between atoms: _56  and  _58
REMARK   27  A    between atoms: _58  and  _59
REMARK   28  A    between atoms: _58  and  _61
REMARK   29  A    between atoms: _61  and  _62
REMARK   30  A    between atoms: _65  and  _67
REMARK   31  A    between atoms: _67  and  _68
REMARK   32  A    between atoms: _67  and  _70
REMARK   33  A    between atoms: _70  and  _71
REMARK   34  A    between atoms: _74  and  _76
REMARK   35  A    between atoms: _76  and  _77
REMARK   36  A    between atoms: _76  and  _79
REMARK   37  A    between atoms: _79  and  _80
REMARK   38  A    between atoms: _80  and  _81
REMARK   39  A    between atoms: _81  and  _82
REMARK   40  A    between atoms: _92  and  _93
REMARK   41  A    between atoms: _99  and  _100
REMARK   42  A    between atoms: _105  and  _107
REMARK   43  A    between atoms: _107  and  _108
REMARK   44  A    between atoms: _110  and  _112
REMARK   45  A    between atoms: _112  and  _113
REMARK   46  A    between atoms: _112  and  _115
REMARK   47  A    between atoms: _115  and  _116
REMARK   48  A    between atoms: _118  and  _120
REMARK   49  A    between atoms: _120  and  _121
REMARK   50  A    between atoms: _120  and  _123
REMARK   51  A    between atoms: _123  and  _124
REMARK   52  A    between atoms: _127  and  _129
REMARK   53  A    between atoms: _129  and  _130
REMARK   54  A    between atoms: _133  and  _135
REMARK   55  A    between atoms: _135  and  _136
REMARK   56  A    between atoms: _135  and  _138
REMARK   57  A    between atoms: _138  and  _139
REMARK   58  A    between atoms: _142  and  _143
REMARK   59  A    between atoms: _148  and  _150
REMARK   60  A    between atoms: _150  and  _151
REMARK   61  A    between atoms: _153  and  _155
REMARK   62  A    between atoms: _155  and  _156
REMARK   63  A    between atoms: _155  and  _158
REMARK   64  A    between atoms: _158  and  _159
REMARK   65  A    between atoms: _162  and  _164
REMARK   66  A    between atoms: _164  and  _165
REMARK   67  A    between atoms: _168  and  _170
REMARK   68  A    between atoms: _170  and  _171
REMARK   69  A    between atoms: _170  and  _173
REMARK   70  A    between atoms: _173  and  _174
REMARK   71  A    between atoms: _179  and  _181
REMARK   72  A    between atoms: _181  and  _182
REMARK   73  A    between atoms: _181  and  _184
REMARK   74  A    between atoms: _184  and  _185
REMARK   75  A    between atoms: _187  and  _189
REMARK   76  A    between atoms: _189  and  _190
REMARK   77  A    between atoms: _189  and  _192
REMARK   78  A    between atoms: _192  and  _193
REMARK   79  A    between atoms: _193  and  _194
REMARK   80  A    between atoms: _194  and  _195
REMARK   81  A    between atoms: _195  and  _196
REMARK   82  A    between atoms: _200  and  _202
REMARK   83  A    between atoms: _202  and  _203
REMARK   84  A    between atoms: _202  and  _205
REMARK   85  A    between atoms: _205  and  _206
REMARK   86  A    between atoms: _211  and  _213
REMARK   87  A    between atoms: _213  and  _214
REMARK   88  A    between atoms: _213  and  _216
REMARK   89  A    between atoms: _216  and  _217
REMARK   90  A    between atoms: _219  and  _221
REMARK   91  A    between atoms: _221  and  _222
REMARK   92  A    between atoms: _221  and  _224
REMARK   93  A    between atoms: _224  and  _225
REMARK   94  A    between atoms: _227  and  _229
REMARK   95  A    between atoms: _229  and  _230
REMARK   96  A    between atoms: _229  and  _232
REMARK   97  A    between atoms: _232  and  _233
REMARK   98  A    between atoms: _239  and  _241
REMARK   99  A    between atoms: _241  and  _242
REMARK  100  A    between atoms: _241  and  _244
REMARK  101  A    between atoms: _244  and  _245
REMARK  102  A    between atoms: _245  and  _246
REMARK  103  A    between atoms: _251  and  _253
REMARK  104  A    between atoms: _253  and  _254
REMARK  105  A    between atoms: _253  and  _256
REMARK  106  A    between atoms: _256  and  _257
REMARK  107  A    between atoms: _260  and  _262
REMARK  108  A    between atoms: _262  and  _263
REMARK  109  A    between atoms: _262  and  _265
REMARK  110  A    between atoms: _265  and  _266
REMARK  111  A    between atoms: _271  and  _273
REMARK  112  A    between atoms: _273  and  _274
REMARK  113  A    between atoms: _273  and  _276
REMARK  114  A    between atoms: _276  and  _277
REMARK  115  A    between atoms: _280  and  _282
REMARK  116  A    between atoms: _282  and  _283
REMARK  117  A    between atoms: _282  and  _285
REMARK  118  A    between atoms: _285  and  _286
REMARK  119  A    between atoms: _286  and  _287
REMARK  120  A    between atoms: _287  and  _288
REMARK  121  A    between atoms: _297  and  _299
REMARK  122  A    between atoms: _299  and  _300
REMARK  123  A    between atoms: _299  and  _306
REMARK  124  A    between atoms: _300  and  _301
REMARK  125  A    between atoms: _301  and  _302
REMARK  126  A    between atoms: _302  and  _303
REMARK  127  A    between atoms: _303  and  _304
REMARK  128  A    between atoms: _311  and  _313
REMARK  129  A    between atoms: _313  and  _314
REMARK  130  A    between atoms: _313  and  _316
REMARK  131  A    between atoms: _316  and  _317
REMARK  132  A    between atoms: _319  and  _321
REMARK  133  A    between atoms: _321  and  _322
REMARK  134  A    between atoms: _321  and  _324
REMARK  135  A    between atoms: _324  and  _325
REMARK  136  A    between atoms: _325  and  _326
REMARK  137  A    between atoms: _326  and  _327
REMARK  138  A    between atoms: _327  and  _328
REMARK  139  A    between atoms: _332  and  _334
REMARK  140  A    between atoms: _334  and  _335
REMARK  141  A    between atoms: _338  and  _340
REMARK  142  A    between atoms: _340  and  _341
REMARK  143  A    between atoms: _340  and  _343
REMARK  144  A    between atoms: _343  and  _344
REMARK  145  A    between atoms: _347  and  _349
REMARK  146  A    between atoms: _349  and  _350
REMARK  147  A    between atoms: _349  and  _352
REMARK  148  A    between atoms: _352  and  _353
REMARK  149  A    between atoms: _358  and  _360
REMARK  150  A    between atoms: _360  and  _361
REMARK  151  A    between atoms: _360  and  _363
REMARK  152  A    between atoms: _363  and  _364
REMARK  153  A    between atoms: _367  and  _369
REMARK  154  A    between atoms: _369  and  _370
REMARK  155  A    between atoms: _372  and  _374
REMARK  156  A    between atoms: _374  and  _375
REMARK  157  A    between atoms: _374  and  _377
REMARK  158  A    between atoms: _377  and  _378
REMARK  159  A    between atoms: _378  and  _379
REMARK  160  A    between atoms: _379  and  _380
REMARK  161  A    between atoms: _380  and  _381
REMARK  162  A    between atoms: _386  and  _387
REMARK  163  A    between atoms: _392  and  _394
REMARK  164  A    between atoms: _394  and  _395
REMARK  165  A    between atoms: _398  and  _400
REMARK  166  A    between atoms: _400  and  _401
REMARK  167  A    between atoms: _400  and  _403
REMARK  168  A    between atoms: _405  and  _407
REMARK  169  A    between atoms: _407  and  _408
REMARK  170  A    between atoms: _411  and  _413
REMARK  171  A    between atoms: _413  and  _414
REMARK  172  A    between atoms: _413  and  _416
REMARK  173  A    between atoms: _416  and  _417
REMARK  174  A    between atoms: _419  and  _421
REMARK  175  A    between atoms: _421  and  _422
REMARK  176  A    between atoms: _421  and  _424
REMARK  177  A    between atoms: _424  and  _425
REMARK  178  A    between atoms: _428  and  _430
REMARK  179  A    between atoms: _430  and  _431
REMARK  180  A    between atoms: _430  and  _433
REMARK  181  A    between atoms: _433  and  _434
REMARK  182  A    between atoms: _437  and  _439
REMARK  183  A    between atoms: _439  and  _440
REMARK  184  A    between atoms: _439  and  _442
REMARK  185  A    between atoms: _442  and  _443
REMARK  186  A    between atoms: _443  and  _444
REMARK  187  A    between atoms: _449  and  _451
REMARK  188  A    between atoms: _451  and  _452
REMARK  189  A    between atoms: _451  and  _454
REMARK  190  A    between atoms: _454  and  _455
REMARK  191  A    between atoms: _461  and  _463
REMARK  192  A    between atoms: _463  and  _464
REMARK  193  A    between atoms: _463  and  _466
REMARK  194  A    between atoms: _466  and  _467
REMARK  195  A    between atoms: _467  and  _468
REMARK  196  A    between atoms: _468  and  _469
REMARK  197  A    between atoms: _469  and  _470
REMARK  198  A    between atoms: _474  and  _476
REMARK  199  A    between atoms: _476  and  _477
REMARK  200  A    between atoms: _476  and  _479
REMARK  201  A    between atoms: _479  and  _480
REMARK  202  A    between atoms: _485  and  _487
REMARK  203  A    between atoms: _487  and  _488
REMARK  204  A    between atoms: _487  and  _490
REMARK  205  A    between atoms: _490  and  _491
REMARK  206  A    between atoms: _497  and  _499
REMARK  207  A    between atoms: _499  and  _500
REMARK  208  A    between atoms: _499  and  _502
REMARK  209  A    between atoms: _502  and  _503
REMARK  210  A    between atoms: _503  and  _504
REMARK  211  A    between atoms: _507  and  _509
REMARK  212  A    between atoms: _509  and  _510
REMARK  213  A    between atoms: _509  and  _512
REMARK  214  A    between atoms: _512  and  _513
REMARK  215  A    between atoms: _513  and  _514
REMARK  216  A    between atoms: _519  and  _521
REMARK  217  A    between atoms: _521  and  _522
REMARK  218  A    between atoms: _521  and  _524
REMARK  219  A    between atoms: _524  and  _525
REMARK  220  A    between atoms: _525  and  _526
REMARK  221  A    between atoms: _526  and  _527
REMARK  222  A    between atoms: _536  and  _538
REMARK  223  A    between atoms: _538  and  _539
REMARK                            x       y       z     vdW  Elec       q    Type
REMARK                         _______ _______ _______ _____ _____    ______ ____
ROOT
ATOM      1  O   HOH     1      12.418  -5.187  24.114  0.00  0.00    +0.000 OA
ENDROOT
TORSDOF 0
REMARK  Name = ../refined-set-2016/2jfh/2jfh_pocket.pdb
REMARK  223 active torsions:
REMARK  status: ('A' for Active; 'I' for Inactive)
REMARK    1  A    between atoms: _1  and  _3
REMARK    2  A    between atoms: _3  and  _4
REMARK    3  A    between atoms: _3  and  _6
REMARK    4  A    between atoms: _6  and  _7
REMARK    5  A    between atoms: _10  and  _12
REMARK    6  A    between atoms: _12  and  _13
REMARK    7  A    between atoms: _12  and  _15
REMARK    8  A    between atoms: _15  and  _16
REMARK    9  A    between atoms: _19  and  _21
REMARK   10  A    between atoms: _21  and  _22
REMARK   11  A    between atoms: _24  and  _26
REMARK   12  A    between atoms: _26  and  _27
REMARK   13  A    between atoms: _26  and  _29
REMARK   14  A    between atoms: _29  and  _30
REMARK   15  A    between atoms: _33  and  _35
REMARK   16  A    between atoms: _35  and  _36
REMARK   17  A    between atoms: _38  and  _40
REMARK   18  A    between atoms: _40  and  _41
REMARK   19  A    between atoms: _40  and  _43
REMARK   20  A    between atoms: _43  and  _44
REMARK   21  A    between atoms: _47  and  _49
REMARK   22  A    between atoms: _49  and  _50
REMARK   23  A    between atoms: _49  and  _52
REMARK   24  A    between atoms: _52  and  _53
REMARK   25  A    between atoms: _53  and  _54
REMARK   26  A    between atoms: _56  and  _58
REMARK   27  A    between atoms: _58  and  _59
REMARK   28  A    between atoms: _58  and  _61
REMARK   29  A    between atoms: _61  and  _62
REMARK   30  A    between atoms: _65  and  _67
REMARK   31  A    between atoms: _67  and  _68
REMARK   32  A    between atoms: _67  and  _70
REMARK   33  A    between atoms: _70  and  _71
REMARK   34  A    between atoms: _74  and  _76
REMARK   35  A    between atoms: _76  and  _77
REMARK   36  A    between atoms: _76  and  _79
REMARK   37  A    between atoms: _79  and  _80
REMARK   38  A    between atoms: _80  and  _81
REMARK   39  A    between atoms: _81  and  _82
REMARK   40  A    between atoms: _92  and  _93
REMARK   41  A    between atoms: _99  and  _100
REMARK   42  A    between atoms: _105  and  _107
REMARK   43  A    between atoms: _107  and  _108
REMARK   44  A    between atoms: _110  and  _112
REMARK   45  A    between atoms: _112  and  _113
REMARK   46  A    between atoms: _112  and  _115
REMARK   47  A    between atoms: _115  and  _116
REMARK   48  A    between atoms: _118  and  _120
REMARK   49  A    between atoms: _120  and  _121
REMARK   50  A    between atoms: _120  and  _123
REMARK   51  A    between atoms: _123  and  _124
REMARK   52  A    between atoms: _127  and  _129
REMARK   53  A    between atoms: _129  and  _130
REMARK   54  A    between atoms: _133  and  _135
REMARK   55  A    between atoms: _135  and  _136
REMARK   56  A    between atoms: _135  and  _138
REMARK   57  A    between atoms: _138  and  _139
REMARK   58  A    between atoms: _142  and  _143
REMARK   59  A    between atoms: _148  and  _150
REMARK   60  A    between atoms: _150  and  _151
REMARK   61  A    between atoms: _153  and  _155
REMARK   62  A    between atoms: _155  and  _156
REMARK   63  A    between atoms: _155  and  _158
REMARK   64  A    between atoms: _158  and  _159
REMARK   65  A    between atoms: _162  and  _164
REMARK   66  A    between atoms: _164  and  _165
REMARK   67  A    between atoms: _168  and  _170
REMARK   68  A    between atoms: _170  and  _171
REMARK   69  A    between atoms: _170  and  _173
REMARK   70  A    between atoms: _173  and  _174
REMARK   71  A    between atoms: _179  and  _181
REMARK   72  A    between atoms: _181  and  _182
REMARK   73  A    between atoms: _181  and  _184
REMARK   74  A    between atoms: _184  and  _185
REMARK   75  A    between atoms: _187  and  _189
REMARK   76  A    between atoms: _189  and  _190
REMARK   77  A    between atoms: _189  and  _192
REMARK   78  A    between atoms: _192  and  _193
REMARK   79  A    between atoms: _193  and  _194
REMARK   80  A    between atoms: _194  and  _195
REMARK   81  A    between atoms: _195  and  _196
REMARK   82  A    between atoms: _200  and  _202
REMARK   83  A    between atoms: _202  and  _203
REMARK   84  A    between atoms: _202  and  _205
REMARK   85  A    between atoms: _205  and  _206
REMARK   86  A    between atoms: _211  and  _213
REMARK   87  A    between atoms: _213  and  _214
REMARK   88  A    between atoms: _213  and  _216
REMARK   89  A    between atoms: _216  and  _217
REMARK   90  A    between atoms: _219  and  _221
REMARK   91  A    between atoms: _221  and  _222
REMARK   92  A    between atoms: _221  and  _224
REMARK   93  A    between atoms: _224  and  _225
REMARK   94  A    between atoms: _227  and  _229
REMARK   95  A    between atoms: _229  and  _230
REMARK   96  A    between atoms: _229  and  _232
REMARK   97  A    between atoms: _232  and  _233
REMARK   98  A    between atoms: _239  and  _241
REMARK   99  A    between atoms: _241  and  _242
REMARK  100  A    between atoms: _241  and  _244
REMARK  101  A    between atoms: _244  and  _245
REMARK  102  A    between atoms: _245  and  _246
REMARK  103  A    between atoms: _251  and  _253
REMARK  104  A    between atoms: _253  and  _254
REMARK  105  A    between atoms: _253  and  _256
REMARK  106  A    between atoms: _256  and  _257
REMARK  107  A    between atoms: _260  and  _262
REMARK  108  A    between atoms: _262  and  _263
REMARK  109  A    between atoms: _262  and  _265
REMARK  110  A    between atoms: _265  and  _266
REMARK  111  A    between atoms: _271  and  _273
REMARK  112  A    between atoms: _273  and  _274
REMARK  113  A    between atoms: _273  and  _276
REMARK  114  A    between atoms: _276  and  _277
REMARK  115  A    between atoms: _280  and  _282
REMARK  116  A    between atoms: _282  and  _283
REMARK  117  A    between atoms: _282  and  _285
REMARK  118  A    between atoms: _285  and  _286
REMARK  119  A    between atoms: _286  and  _287
REMARK  120  A    between atoms: _287  and  _288
REMARK  121  A    between atoms: _297  and  _299
REMARK  122  A    between atoms: _299  and  _300
REMARK  123  A    between atoms: _299  and  _306
REMARK  124  A    between atoms: _300  and  _301
REMARK  125  A    between atoms: _301  and  _302
REMARK  126  A    between atoms: _302  and  _303
REMARK  127  A    between atoms: _303  and  _304
REMARK  128  A    between atoms: _311  and  _313
REMARK  129  A    between atoms: _313  and  _314
REMARK  130  A    between atoms: _313  and  _316
REMARK  131  A    between atoms: _316  and  _317
REMARK  132  A    between atoms: _319  and  _321
REMARK  133  A    between atoms: _321  and  _322
REMARK  134  A    between atoms: _321  and  _324
REMARK  135  A    between atoms: _324  and  _325
REMARK  136  A    between atoms: _325  and  _326
REMARK  137  A    between atoms: _326  and  _327
REMARK  138  A    between atoms: _327  and  _328
REMARK  139  A    between atoms: _332  and  _334
REMARK  140  A    between atoms: _334  and  _335
REMARK  141  A    between atoms: _338  and  _340
REMARK  142  A    between atoms: _340  and  _341
REMARK  143  A    between atoms: _340  and  _343
REMARK  144  A    between atoms: _343  and  _344
REMARK  145  A    between atoms: _347  and  _349
REMARK  146  A    between atoms: _349  and  _350
REMARK  147  A    between atoms: _349  and  _352
REMARK  148  A    between atoms: _352  and  _353
REMARK  149  A    between atoms: _358  and  _360
REMARK  150  A    between atoms: _360  and  _361
REMARK  151  A    between atoms: _360  and  _363
REMARK  152  A    between atoms: _363  and  _364
REMARK  153  A    between atoms: _367  and  _369
REMARK  154  A    between atoms: _369  and  _370
REMARK  155  A    between atoms: _372  and  _374
REMARK  156  A    between atoms: _374  and  _375
REMARK  157  A    between atoms: _374  and  _377
REMARK  158  A    between atoms: _377  and  _378
REMARK  159  A    between atoms: _378  and  _379
REMARK  160  A    between atoms: _379  and  _380
REMARK  161  A    between atoms: _380  and  _381
REMARK  162  A    between atoms: _386  and  _387
REMARK  163  A    between atoms: _392  and  _394
REMARK  164  A    between atoms: _394  and  _395
REMARK  165  A    between atoms: _398  and  _400
REMARK  166  A    between atoms: _400  and  _401
REMARK  167  A    between atoms: _400  and  _403
REMARK  168  A    between atoms: _405  and  _407
REMARK  169  A    between atoms: _407  and  _408
REMARK  170  A    between atoms: _411  and  _413
REMARK  171  A    between atoms: _413  and  _414
REMARK  172  A    between atoms: _413  and  _416
REMARK  173  A    between atoms: _416  and  _417
REMARK  174  A    between atoms: _419  and  _421
REMARK  175  A    between atoms: _421  and  _422
REMARK  176  A    between atoms: _421  and  _424
REMARK  177  A    between atoms: _424  and  _425
REMARK  178  A    between atoms: _428  and  _430
REMARK  179  A    between atoms: _430  and  _431
REMARK  180  A    between atoms: _430  and  _433
REMARK  181  A    between atoms: _433  and  _434
REMARK  182  A    between atoms: _437  and  _439
REMARK  183  A    between atoms: _439  and  _440
REMARK  184  A    between atoms: _439  and  _442
REMARK  185  A    between atoms: _442  and  _443
REMARK  186  A    between atoms: _443  and  _444
REMARK  187  A    between atoms: _449  and  _451
REMARK  188  A    between atoms: _451  and  _452
REMARK  189  A    between atoms: _451  and  _454
REMARK  190  A    between atoms: _454  and  _455
REMARK  191  A    between atoms: _461  and  _463
REMARK  192  A    between atoms: _463  and  _464
REMARK  193  A    between atoms: _463  and  _466
REMARK  194  A    between atoms: _466  and  _467
REMARK  195  A    between atoms: _467  and  _468
REMARK  196  A    between atoms: _468  and  _469
REMARK  197  A    between atoms: _469  and  _470
REMARK  198  A    between atoms: _474  and  _476
REMARK  199  A    between atoms: _476  and  _477
REMARK  200  A    between atoms: _476  and  _479
REMARK  201  A    between atoms: _479  and  _480
REMARK  202  A    between atoms: _485  and  _487
REMARK  203  A    between atoms: _487  and  _488
REMARK  204  A    between atoms: _487  and  _490
REMARK  205  A    between atoms: _490  and  _491
REMARK  206  A    between atoms: _497  and  _499
REMARK  207  A    between atoms: _499  and  _500
REMARK  208  A    between atoms: _499  and  _502
REMARK  209  A    between atoms: _502  and  _503
REMARK  210  A    between atoms: _503  and  _504
REMARK  211  A    between atoms: _507  and  _509
REMARK  212  A    between atoms: _509  and  _510
REMARK  213  A    between atoms: _509  and  _512
REMARK  214  A    between atoms: _512  and  _513
REMARK  215  A    between atoms: _513  and  _514
REMARK  216  A    between atoms: _519  and  _521
REMARK  217  A    between atoms: _521  and  _522
REMARK  218  A    between atoms: _521  and  _524
REMARK  219  A    between atoms: _524  and  _525
REMARK  220  A    between atoms: _525  and  _526
REMARK  221  A    between atoms: _526  and  _527
REMARK  222  A    between atoms: _536  and  _538
REMARK  223  A    between atoms: _538  and  _539
REMARK                            x       y       z     vdW  Elec       q    Type
REMARK                         _______ _______ _______ _____ _____    ______ ____
ROOT
ATOM      1  O   HOH     1       8.476  -1.238  27.733  0.00  0.00    +0.000 OA
ENDROOT
TORSDOF 0
REMARK  Name = ../refined-set-2016/2jfh/2jfh_pocket.pdb
REMARK  223 active torsions:
REMARK  status: ('A' for Active; 'I' for Inactive)
REMARK    1  A    between atoms: _1  and  _3
REMARK    2  A    between atoms: _3  and  _4
REMARK    3  A    between atoms: _3  and  _6
REMARK    4  A    between atoms: _6  and  _7
REMARK    5  A    between atoms: _10  and  _12
REMARK    6  A    between atoms: _12  and  _13
REMARK    7  A    between atoms: _12  and  _15
REMARK    8  A    between atoms: _15  and  _16
REMARK    9  A    between atoms: _19  and  _21
REMARK   10  A    between atoms: _21  and  _22
REMARK   11  A    between atoms: _24  and  _26
REMARK   12  A    between atoms: _26  and  _27
REMARK   13  A    between atoms: _26  and  _29
REMARK   14  A    between atoms: _29  and  _30
REMARK   15  A    between atoms: _33  and  _35
REMARK   16  A    between atoms: _35  and  _36
REMARK   17  A    between atoms: _38  and  _40
REMARK   18  A    between atoms: _40  and  _41
REMARK   19  A    between atoms: _40  and  _43
REMARK   20  A    between atoms: _43  and  _44
REMARK   21  A    between atoms: _47  and  _49
REMARK   22  A    between atoms: _49  and  _50
REMARK   23  A    between atoms: _49  and  _52
REMARK   24  A    between atoms: _52  and  _53
REMARK   25  A    between atoms: _53  and  _54
REMARK   26  A    between atoms: _56  and  _58
REMARK   27  A    between atoms: _58  and  _59
REMARK   28  A    between atoms: _58  and  _61
REMARK   29  A    between atoms: _61  and  _62
REMARK   30  A    between atoms: _65  and  _67
REMARK   31  A    between atoms: _67  and  _68
REMARK   32  A    between atoms: _67  and  _70
REMARK   33  A    between atoms: _70  and  _71
REMARK   34  A    between atoms: _74  and  _76
REMARK   35  A    between atoms: _76  and  _77
REMARK   36  A    between atoms: _76  and  _79
REMARK   37  A    between atoms: _79  and  _80
REMARK   38  A    between atoms: _80  and  _81
REMARK   39  A    between atoms: _81  and  _82
REMARK   40  A    between atoms: _92  and  _93
REMARK   41  A    between atoms: _99  and  _100
REMARK   42  A    between atoms: _105  and  _107
REMARK   43  A    between atoms: _107  and  _108
REMARK   44  A    between atoms: _110  and  _112
REMARK   45  A    between atoms: _112  and  _113
REMARK   46  A    between atoms: _112  and  _115
REMARK   47  A    between atoms: _115  and  _116
REMARK   48  A    between atoms: _118  and  _120
REMARK   49  A    between atoms: _120  and  _121
REMARK   50  A    between atoms: _120  and  _123
REMARK   51  A    between atoms: _123  and  _124
REMARK   52  A    between atoms: _127  and  _129
REMARK   53  A    between atoms: _129  and  _130
REMARK   54  A    between atoms: _133  and  _135
REMARK   55  A    between atoms: _135  and  _136
REMARK   56  A    between atoms: _135  and  _138
REMARK   57  A    between atoms: _138  and  _139
REMARK   58  A    between atoms: _142  and  _143
REMARK   59  A    between atoms: _148  and  _150
REMARK   60  A    between atoms: _150  and  _151
REMARK   61  A    between atoms: _153  and  _155
REMARK   62  A    between atoms: _155  and  _156
REMARK   63  A    between atoms: _155  and  _158
REMARK   64  A    between atoms: _158  and  _159
REMARK   65  A    between atoms: _162  and  _164
REMARK   66  A    between atoms: _164  and  _165
REMARK   67  A    between atoms: _168  and  _170
REMARK   68  A    between atoms: _170  and  _171
REMARK   69  A    between atoms: _170  and  _173
REMARK   70  A    between atoms: _173  and  _174
REMARK   71  A    between atoms: _179  and  _181
REMARK   72  A    between atoms: _181  and  _182
REMARK   73  A    between atoms: _181  and  _184
REMARK   74  A    between atoms: _184  and  _185
REMARK   75  A    between atoms: _187  and  _189
REMARK   76  A    between atoms: _189  and  _190
REMARK   77  A    between atoms: _189  and  _192
REMARK   78  A    between atoms: _192  and  _193
REMARK   79  A    between atoms: _193  and  _194
REMARK   80  A    between atoms: _194  and  _195
REMARK   81  A    between atoms: _195  and  _196
REMARK   82  A    between atoms: _200  and  _202
REMARK   83  A    between atoms: _202  and  _203
REMARK   84  A    between atoms: _202  and  _205
REMARK   85  A    between atoms: _205  and  _206
REMARK   86  A    between atoms: _211  and  _213
REMARK   87  A    between atoms: _213  and  _214
REMARK   88  A    between atoms: _213  and  _216
REMARK   89  A    between atoms: _216  and  _217
REMARK   90  A    between atoms: _219  and  _221
REMARK   91  A    between atoms: _221  and  _222
REMARK   92  A    between atoms: _221  and  _224
REMARK   93  A    between atoms: _224  and  _225
REMARK   94  A    between atoms: _227  and  _229
REMARK   95  A    between atoms: _229  and  _230
REMARK   96  A    between atoms: _229  and  _232
REMARK   97  A    between atoms: _232  and  _233
REMARK   98  A    between atoms: _239  and  _241
REMARK   99  A    between atoms: _241  and  _242
REMARK  100  A    between atoms: _241  and  _244
REMARK  101  A    between atoms: _244  and  _245
REMARK  102  A    between atoms: _245  and  _246
REMARK  103  A    between atoms: _251  and  _253
REMARK  104  A    between atoms: _253  and  _254
REMARK  105  A    between atoms: _253  and  _256
REMARK  106  A    between atoms: _256  and  _257
REMARK  107  A    between atoms: _260  and  _262
REMARK  108  A    between atoms: _262  and  _263
REMARK  109  A    between atoms: _262  and  _265
REMARK  110  A    between atoms: _265  and  _266
REMARK  111  A    between atoms: _271  and  _273
REMARK  112  A    between atoms: _273  and  _274
REMARK  113  A    between atoms: _273  and  _276
REMARK  114  A    between atoms: _276  and  _277
REMARK  115  A    between atoms: _280  and  _282
REMARK  116  A    between atoms: _282  and  _283
REMARK  117  A    between atoms: _282  and  _285
REMARK  118  A    between atoms: _285  and  _286
REMARK  119  A    between atoms: _286  and  _287
REMARK  120  A    between atoms: _287  and  _288
REMARK  121  A    between atoms: _297  and  _299
REMARK  122  A    between atoms: _299  and  _300
REMARK  123  A    between atoms: _299  and  _306
REMARK  124  A    between atoms: _300  and  _301
REMARK  125  A    between atoms: _301  and  _302
REMARK  126  A    between atoms: _302  and  _303
REMARK  127  A    between atoms: _303  and  _304
REMARK  128  A    between atoms: _311  and  _313
REMARK  129  A    between atoms: _313  and  _314
REMARK  130  A    between atoms: _313  and  _316
REMARK  131  A    between atoms: _316  and  _317
REMARK  132  A    between atoms: _319  and  _321
REMARK  133  A    between atoms: _321  and  _322
REMARK  134  A    between atoms: _321  and  _324
REMARK  135  A    between atoms: _324  and  _325
REMARK  136  A    between atoms: _325  and  _326
REMARK  137  A    between atoms: _326  and  _327
REMARK  138  A    between atoms: _327  and  _328
REMARK  139  A    between atoms: _332  and  _334
REMARK  140  A    between atoms: _334  and  _335
REMARK  141  A    between atoms: _338  and  _340
REMARK  142  A    between atoms: _340  and  _341
REMARK  143  A    between atoms: _340  and  _343
REMARK  144  A    between atoms: _343  and  _344
REMARK  145  A    between atoms: _347  and  _349
REMARK  146  A    between atoms: _349  and  _350
REMARK  147  A    between atoms: _349  and  _352
REMARK  148  A    between atoms: _352  and  _353
REMARK  149  A    between atoms: _358  and  _360
REMARK  150  A    between atoms: _360  and  _361
REMARK  151  A    between atoms: _360  and  _363
REMARK  152  A    between atoms: _363  and  _364
REMARK  153  A    between atoms: _367  and  _369
REMARK  154  A    between atoms: _369  and  _370
REMARK  155  A    between atoms: _372  and  _374
REMARK  156  A    between atoms: _374  and  _375
REMARK  157  A    between atoms: _374  and  _377
REMARK  158  A    between atoms: _377  and  _378
REMARK  159  A    between atoms: _378  and  _379
REMARK  160  A    between atoms: _379  and  _380
REMARK  161  A    between atoms: _380  and  _381
REMARK  162  A    between atoms: _386  and  _387
REMARK  163  A    between atoms: _392  and  _394
REMARK  164  A    between atoms: _394  and  _395
REMARK  165  A    between atoms: _398  and  _400
REMARK  166  A    between atoms: _400  and  _401
REMARK  167  A    between atoms: _400  and  _403
REMARK  168  A    between atoms: _405  and  _407
REMARK  169  A    between atoms: _407  and  _408
REMARK  170  A    between atoms: _411  and  _413
REMARK  171  A    between atoms: _413  and  _414
REMARK  172  A    between atoms: _413  and  _416
REMARK  173  A    between atoms: _416  and  _417
REMARK  174  A    between atoms: _419  and  _421
REMARK  175  A    between atoms: _421  and  _422
REMARK  176  A    between atoms: _421  and  _424
REMARK  177  A    between atoms: _424  and  _425
REMARK  178  A    between atoms: _428  and  _430
REMARK  179  A    between atoms: _430  and  _431
REMARK  180  A    between atoms: _430  and  _433
REMARK  181  A    between atoms: _433  and  _434
REMARK  182  A    between atoms: _437  and  _439
REMARK  183  A    between atoms: _439  and  _440
REMARK  184  A    between atoms: _439  and  _442
REMARK  185  A    between atoms: _442  and  _443
REMARK  186  A    between atoms: _443  and  _444
REMARK  187  A    between atoms: _449  and  _451
REMARK  188  A    between atoms: _451  and  _452
REMARK  189  A    between atoms: _451  and  _454
REMARK  190  A    between atoms: _454  and  _455
REMARK  191  A    between atoms: _461  and  _463
REMARK  192  A    between atoms: _463  and  _464
REMARK  193  A    between atoms: _463  and  _466
REMARK  194  A    between atoms: _466  and  _467
REMARK  195  A    between atoms: _467  and  _468
REMARK  196  A    between atoms: _468  and  _469
REMARK  197  A    between atoms: _469  and  _470
REMARK  198  A    between atoms: _474  and  _476
REMARK  199  A    between atoms: _476  and  _477
REMARK  200  A    between atoms: _476  and  _479
REMARK  201  A    between atoms: _479  and  _480
REMARK  202  A    between atoms: _485  and  _487
REMARK  203  A    between atoms: _487  and  _488
REMARK  204  A    between atoms: _487  and  _490
REMARK  205  A    between atoms: _490  and  _491
REMARK  206  A    between atoms: _497  and  _499
REMARK  207  A    between atoms: _499  and  _500
REMARK  208  A    between atoms: _499  and  _502
REMARK  209  A    between atoms: _502  and  _503
REMARK  210  A    between atoms: _503  and  _504
REMARK  211  A    between atoms: _507  and  _509
REMARK  212  A    between atoms: _509  and  _510
REMARK  213  A    between atoms: _509  and  _512
REMARK  214  A    between atoms: _512  and  _513
REMARK  215  A    between atoms: _513  and  _514
REMARK  216  A    between atoms: _519  and  _521
REMARK  217  A    between atoms: _521  and  _522
REMARK  218  A    between atoms: _521  and  _524
REMARK  219  A    between atoms: _524  and  _525
REMARK  220  A    between atoms: _525  and  _526
REMARK  221  A    between atoms: _526  and  _527
REMARK  222  A    between atoms: _536  and  _538
REMARK  223  A    between atoms: _538  and  _539
REMARK                            x       y       z     vdW  Elec       q    Type
REMARK                         _______ _______ _______ _____ _____    ______ ____
ROOT
ATOM      1  O   HOH     1      26.911  -7.647  15.668  0.00  0.00    +0.000 OA
ENDROOT
TORSDOF 0
REMARK  Name = ../refined-set-2016/2jfh/2jfh_pocket.pdb
REMARK  223 active torsions:
REMARK  status: ('A' for Active; 'I' for Inactive)
REMARK    1  A    between atoms: _1  and  _3
REMARK    2  A    between atoms: _3  and  _4
REMARK    3  A    between atoms: _3  and  _6
REMARK    4  A    between atoms: _6  and  _7
REMARK    5  A    between atoms: _10  and  _12
REMARK    6  A    between atoms: _12  and  _13
REMARK    7  A    between atoms: _12  and  _15
REMARK    8  A    between atoms: _15  and  _16
REMARK    9  A    between atoms: _19  and  _21
REMARK   10  A    between atoms: _21  and  _22
REMARK   11  A    between atoms: _24  and  _26
REMARK   12  A    between atoms: _26  and  _27
REMARK   13  A    between atoms: _26  and  _29
REMARK   14  A    between atoms: _29  and  _30
REMARK   15  A    between atoms: _33  and  _35
REMARK   16  A    between atoms: _35  and  _36
REMARK   17  A    between atoms: _38  and  _40
REMARK   18  A    between atoms: _40  and  _41
REMARK   19  A    between atoms: _40  and  _43
REMARK   20  A    between atoms: _43  and  _44
REMARK   21  A    between atoms: _47  and  _49
REMARK   22  A    between atoms: _49  and  _50
REMARK   23  A    between atoms: _49  and  _52
REMARK   24  A    between atoms: _52  and  _53
REMARK   25  A    between atoms: _53  and  _54
REMARK   26  A    between atoms: _56  and  _58
REMARK   27  A    between atoms: _58  and  _59
REMARK   28  A    between atoms: _58  and  _61
REMARK   29  A    between atoms: _61  and  _62
REMARK   30  A    between atoms: _65  and  _67
REMARK   31  A    between atoms: _67  and  _68
REMARK   32  A    between atoms: _67  and  _70
REMARK   33  A    between atoms: _70  and  _71
REMARK   34  A    between atoms: _74  and  _76
REMARK   35  A    between atoms: _76  and  _77
REMARK   36  A    between atoms: _76  and  _79
REMARK   37  A    between atoms: _79  and  _80
REMARK   38  A    between atoms: _80  and  _81
REMARK   39  A    between atoms: _81  and  _82
REMARK   40  A    between atoms: _92  and  _93
REMARK   41  A    between atoms: _99  and  _100
REMARK   42  A    between atoms: _105  and  _107
REMARK   43  A    between atoms: _107  and  _108
REMARK   44  A    between atoms: _110  and  _112
REMARK   45  A    between atoms: _112  and  _113
REMARK   46  A    between atoms: _112  and  _115
REMARK   47  A    between atoms: _115  and  _116
REMARK   48  A    between atoms: _118  and  _120
REMARK   49  A    between atoms: _120  and  _121
REMARK   50  A    between atoms: _120  and  _123
REMARK   51  A    between atoms: _123  and  _124
REMARK   52  A    between atoms: _127  and  _129
REMARK   53  A    between atoms: _129  and  _130
REMARK   54  A    between atoms: _133  and  _135
REMARK   55  A    between atoms: _135  and  _136
REMARK   56  A    between atoms: _135  and  _138
REMARK   57  A    between atoms: _138  and  _139
REMARK   58  A    between atoms: _142  and  _143
REMARK   59  A    between atoms: _148  and  _150
REMARK   60  A    between atoms: _150  and  _151
REMARK   61  A    between atoms: _153  and  _155
REMARK   62  A    between atoms: _155  and  _156
REMARK   63  A    between atoms: _155  and  _158
REMARK   64  A    between atoms: _158  and  _159
REMARK   65  A    between atoms: _162  and  _164
REMARK   66  A    between atoms: _164  and  _165
REMARK   67  A    between atoms: _168  and  _170
REMARK   68  A    between atoms: _170  and  _171
REMARK   69  A    between atoms: _170  and  _173
REMARK   70  A    between atoms: _173  and  _174
REMARK   71  A    between atoms: _179  and  _181
REMARK   72  A    between atoms: _181  and  _182
REMARK   73  A    between atoms: _181  and  _184
REMARK   74  A    between atoms: _184  and  _185
REMARK   75  A    between atoms: _187  and  _189
REMARK   76  A    between atoms: _189  and  _190
REMARK   77  A    between atoms: _189  and  _192
REMARK   78  A    between atoms: _192  and  _193
REMARK   79  A    between atoms: _193  and  _194
REMARK   80  A    between atoms: _194  and  _195
REMARK   81  A    between atoms: _195  and  _196
REMARK   82  A    between atoms: _200  and  _202
REMARK   83  A    between atoms: _202  and  _203
REMARK   84  A    between atoms: _202  and  _205
REMARK   85  A    between atoms: _205  and  _206
REMARK   86  A    between atoms: _211  and  _213
REMARK   87  A    between atoms: _213  and  _214
REMARK   88  A    between atoms: _213  and  _216
REMARK   89  A    between atoms: _216  and  _217
REMARK   90  A    between atoms: _219  and  _221
REMARK   91  A    between atoms: _221  and  _222
REMARK   92  A    between atoms: _221  and  _224
REMARK   93  A    between atoms: _224  and  _225
REMARK   94  A    between atoms: _227  and  _229
REMARK   95  A    between atoms: _229  and  _230
REMARK   96  A    between atoms: _229  and  _232
REMARK   97  A    between atoms: _232  and  _233
REMARK   98  A    between atoms: _239  and  _241
REMARK   99  A    between atoms: _241  and  _242
REMARK  100  A    between atoms: _241  and  _244
REMARK  101  A    between atoms: _244  and  _245
REMARK  102  A    between atoms: _245  and  _246
REMARK  103  A    between atoms: _251  and  _253
REMARK  104  A    between atoms: _253  and  _254
REMARK  105  A    between atoms: _253  and  _256
REMARK  106  A    between atoms: _256  and  _257
REMARK  107  A    between atoms: _260  and  _262
REMARK  108  A    between atoms: _262  and  _263
REMARK  109  A    between atoms: _262  and  _265
REMARK  110  A    between atoms: _265  and  _266
REMARK  111  A    between atoms: _271  and  _273
REMARK  112  A    between atoms: _273  and  _274
REMARK  113  A    between atoms: _273  and  _276
REMARK  114  A    between atoms: _276  and  _277
REMARK  115  A    between atoms: _280  and  _282
REMARK  116  A    between atoms: _282  and  _283
REMARK  117  A    between atoms: _282  and  _285
REMARK  118  A    between atoms: _285  and  _286
REMARK  119  A    between atoms: _286  and  _287
REMARK  120  A    between atoms: _287  and  _288
REMARK  121  A    between atoms: _297  and  _299
REMARK  122  A    between atoms: _299  and  _300
REMARK  123  A    between atoms: _299  and  _306
REMARK  124  A    between atoms: _300  and  _301
REMARK  125  A    between atoms: _301  and  _302
REMARK  126  A    between atoms: _302  and  _303
REMARK  127  A    between atoms: _303  and  _304
REMARK  128  A    between atoms: _311  and  _313
REMARK  129  A    between atoms: _313  and  _314
REMARK  130  A    between atoms: _313  and  _316
REMARK  131  A    between atoms: _316  and  _317
REMARK  132  A    between atoms: _319  and  _321
REMARK  133  A    between atoms: _321  and  _322
REMARK  134  A    between atoms: _321  and  _324
REMARK  135  A    between atoms: _324  and  _325
REMARK  136  A    between atoms: _325  and  _326
REMARK  137  A    between atoms: _326  and  _327
REMARK  138  A    between atoms: _327  and  _328
REMARK  139  A    between atoms: _332  and  _334
REMARK  140  A    between atoms: _334  and  _335
REMARK  141  A    between atoms: _338  and  _340
REMARK  142  A    between atoms: _340  and  _341
REMARK  143  A    between atoms: _340  and  _343
REMARK  144  A    between atoms: _343  and  _344
REMARK  145  A    between atoms: _347  and  _349
REMARK  146  A    between atoms: _349  and  _350
REMARK  147  A    between atoms: _349  and  _352
REMARK  148  A    between atoms: _352  and  _353
REMARK  149  A    between atoms: _358  and  _360
REMARK  150  A    between atoms: _360  and  _361
REMARK  151  A    between atoms: _360  and  _363
REMARK  152  A    between atoms: _363  and  _364
REMARK  153  A    between atoms: _367  and  _369
REMARK  154  A    between atoms: _369  and  _370
REMARK  155  A    between atoms: _372  and  _374
REMARK  156  A    between atoms: _374  and  _375
REMARK  157  A    between atoms: _374  and  _377
REMARK  158  A    between atoms: _377  and  _378
REMARK  159  A    between atoms: _378  and  _379
REMARK  160  A    between atoms: _379  and  _380
REMARK  161  A    between atoms: _380  and  _381
REMARK  162  A    between atoms: _386  and  _387
REMARK  163  A    between atoms: _392  and  _394
REMARK  164  A    between atoms: _394  and  _395
REMARK  165  A    between atoms: _398  and  _400
REMARK  166  A    between atoms: _400  and  _401
REMARK  167  A    between atoms: _400  and  _403
REMARK  168  A    between atoms: _405  and  _407
REMARK  169  A    between atoms: _407  and  _408
REMARK  170  A    between atoms: _411  and  _413
REMARK  171  A    between atoms: _413  and  _414
REMARK  172  A    between atoms: _413  and  _416
REMARK  173  A    between atoms: _416  and  _417
REMARK  174  A    between atoms: _419  and  _421
REMARK  175  A    between atoms: _421  and  _422
REMARK  176  A    between atoms: _421  and  _424
REMARK  177  A    between atoms: _424  and  _425
REMARK  178  A    between atoms: _428  and  _430
REMARK  179  A    between atoms: _430  and  _431
REMARK  180  A    between atoms: _430  and  _433
REMARK  181  A    between atoms: _433  and  _434
REMARK  182  A    between atoms: _437  and  _439
REMARK  183  A    between atoms: _439  and  _440
REMARK  184  A    between atoms: _439  and  _442
REMARK  185  A    between atoms: _442  and  _443
REMARK  186  A    between atoms: _443  and  _444
REMARK  187  A    between atoms: _449  and  _451
REMARK  188  A    between atoms: _451  and  _452
REMARK  189  A    between atoms: _451  and  _454
REMARK  190  A    between atoms: _454  and  _455
REMARK  191  A    between atoms: _461  and  _463
REMARK  192  A    between atoms: _463  and  _464
REMARK  193  A    between atoms: _463  and  _466
REMARK  194  A    between atoms: _466  and  _467
REMARK  195  A    between atoms: _467  and  _468
REMARK  196  A    between atoms: _468  and  _469
REMARK  197  A    between atoms: _469  and  _470
REMARK  198  A    between atoms: _474  and  _476
REMARK  199  A    between atoms: _476  and  _477
REMARK  200  A    between atoms: _476  and  _479
REMARK  201  A    between atoms: _479  and  _480
REMARK  202  A    between atoms: _485  and  _487
REMARK  203  A    between atoms: _487  and  _488
REMARK  204  A    between atoms: _487  and  _490
REMARK  205  A    between atoms: _490  and  _491
REMARK  206  A    between atoms: _497  and  _499
REMARK  207  A    between atoms: _499  and  _500
REMARK  208  A    between atoms: _499  and  _502
REMARK  209  A    between atoms: _502  and  _503
REMARK  210  A    between atoms: _503  and  _504
REMARK  211  A    between atoms: _507  and  _509
REMARK  212  A    between atoms: _509  and  _510
REMARK  213  A    between atoms: _509  and  _512
REMARK  214  A    between atoms: _512  and  _513
REMARK  215  A    between atoms: _513  and  _514
REMARK  216  A    between atoms: _519  and  _521
REMARK  217  A    between atoms: _521  and  _522
REMARK  218  A    between atoms: _521  and  _524
REMARK  219  A    between atoms: _524  and  _525
REMARK  220  A    between atoms: _525  and  _526
REMARK  221  A    between atoms: _526  and  _527
REMARK  222  A    between atoms: _536  and  _538
REMARK  223  A    between atoms: _538  and  _539
REMARK                            x       y       z     vdW  Elec       q    Type
REMARK                         _______ _______ _______ _____ _____    ______ ____
ROOT
ATOM      1  O   HOH     1      19.548  -4.878  13.999  0.00  0.00    +0.000 OA
ENDROOT
TORSDOF 0
REMARK  Name = ../refined-set-2016/2jfh/2jfh_pocket.pdb
REMARK  223 active torsions:
REMARK  status: ('A' for Active; 'I' for Inactive)
REMARK    1  A    between atoms: _1  and  _3
REMARK    2  A    between atoms: _3  and  _4
REMARK    3  A    between atoms: _3  and  _6
REMARK    4  A    between atoms: _6  and  _7
REMARK    5  A    between atoms: _10  and  _12
REMARK    6  A    between atoms: _12  and  _13
REMARK    7  A    between atoms: _12  and  _15
REMARK    8  A    between atoms: _15  and  _16
REMARK    9  A    between atoms: _19  and  _21
REMARK   10  A    between atoms: _21  and  _22
REMARK   11  A    between atoms: _24  and  _26
REMARK   12  A    between atoms: _26  and  _27
REMARK   13  A    between atoms: _26  and  _29
REMARK   14  A    between atoms: _29  and  _30
REMARK   15  A    between atoms: _33  and  _35
REMARK   16  A    between atoms: _35  and  _36
REMARK   17  A    between atoms: _38  and  _40
REMARK   18  A    between atoms: _40  and  _41
REMARK   19  A    between atoms: _40  and  _43
REMARK   20  A    between atoms: _43  and  _44
REMARK   21  A    between atoms: _47  and  _49
REMARK   22  A    between atoms: _49  and  _50
REMARK   23  A    between atoms: _49  and  _52
REMARK   24  A    between atoms: _52  and  _53
REMARK   25  A    between atoms: _53  and  _54
REMARK   26  A    between atoms: _56  and  _58
REMARK   27  A    between atoms: _58  and  _59
REMARK   28  A    between atoms: _58  and  _61
REMARK   29  A    between atoms: _61  and  _62
REMARK   30  A    between atoms: _65  and  _67
REMARK   31  A    between atoms: _67  and  _68
REMARK   32  A    between atoms: _67  and  _70
REMARK   33  A    between atoms: _70  and  _71
REMARK   34  A    between atoms: _74  and  _76
REMARK   35  A    between atoms: _76  and  _77
REMARK   36  A    between atoms: _76  and  _79
REMARK   37  A    between atoms: _79  and  _80
REMARK   38  A    between atoms: _80  and  _81
REMARK   39  A    between atoms: _81  and  _82
REMARK   40  A    between atoms: _92  and  _93
REMARK   41  A    between atoms: _99  and  _100
REMARK   42  A    between atoms: _105  and  _107
REMARK   43  A    between atoms: _107  and  _108
REMARK   44  A    between atoms: _110  and  _112
REMARK   45  A    between atoms: _112  and  _113
REMARK   46  A    between atoms: _112  and  _115
REMARK   47  A    between atoms: _115  and  _116
REMARK   48  A    between atoms: _118  and  _120
REMARK   49  A    between atoms: _120  and  _121
REMARK   50  A    between atoms: _120  and  _123
REMARK   51  A    between atoms: _123  and  _124
REMARK   52  A    between atoms: _127  and  _129
REMARK   53  A    between atoms: _129  and  _130
REMARK   54  A    between atoms: _133  and  _135
REMARK   55  A    between atoms: _135  and  _136
REMARK   56  A    between atoms: _135  and  _138
REMARK   57  A    between atoms: _138  and  _139
REMARK   58  A    between atoms: _142  and  _143
REMARK   59  A    between atoms: _148  and  _150
REMARK   60  A    between atoms: _150  and  _151
REMARK   61  A    between atoms: _153  and  _155
REMARK   62  A    between atoms: _155  and  _156
REMARK   63  A    between atoms: _155  and  _158
REMARK   64  A    between atoms: _158  and  _159
REMARK   65  A    between atoms: _162  and  _164
REMARK   66  A    between atoms: _164  and  _165
REMARK   67  A    between atoms: _168  and  _170
REMARK   68  A    between atoms: _170  and  _171
REMARK   69  A    between atoms: _170  and  _173
REMARK   70  A    between atoms: _173  and  _174
REMARK   71  A    between atoms: _179  and  _181
REMARK   72  A    between atoms: _181  and  _182
REMARK   73  A    between atoms: _181  and  _184
REMARK   74  A    between atoms: _184  and  _185
REMARK   75  A    between atoms: _187  and  _189
REMARK   76  A    between atoms: _189  and  _190
REMARK   77  A    between atoms: _189  and  _192
REMARK   78  A    between atoms: _192  and  _193
REMARK   79  A    between atoms: _193  and  _194
REMARK   80  A    between atoms: _194  and  _195
REMARK   81  A    between atoms: _195  and  _196
REMARK   82  A    between atoms: _200  and  _202
REMARK   83  A    between atoms: _202  and  _203
REMARK   84  A    between atoms: _202  and  _205
REMARK   85  A    between atoms: _205  and  _206
REMARK   86  A    between atoms: _211  and  _213
REMARK   87  A    between atoms: _213  and  _214
REMARK   88  A    between atoms: _213  and  _216
REMARK   89  A    between atoms: _216  and  _217
REMARK   90  A    between atoms: _219  and  _221
REMARK   91  A    between atoms: _221  and  _222
REMARK   92  A    between atoms: _221  and  _224
REMARK   93  A    between atoms: _224  and  _225
REMARK   94  A    between atoms: _227  and  _229
REMARK   95  A    between atoms: _229  and  _230
REMARK   96  A    between atoms: _229  and  _232
REMARK   97  A    between atoms: _232  and  _233
REMARK   98  A    between atoms: _239  and  _241
REMARK   99  A    between atoms: _241  and  _242
REMARK  100  A    between atoms: _241  and  _244
REMARK  101  A    between atoms: _244  and  _245
REMARK  102  A    between atoms: _245  and  _246
REMARK  103  A    between atoms: _251  and  _253
REMARK  104  A    between atoms: _253  and  _254
REMARK  105  A    between atoms: _253  and  _256
REMARK  106  A    between atoms: _256  and  _257
REMARK  107  A    between atoms: _260  and  _262
REMARK  108  A    between atoms: _262  and  _263
REMARK  109  A    between atoms: _262  and  _265
REMARK  110  A    between atoms: _265  and  _266
REMARK  111  A    between atoms: _271  and  _273
REMARK  112  A    between atoms: _273  and  _274
REMARK  113  A    between atoms: _273  and  _276
REMARK  114  A    between atoms: _276  and  _277
REMARK  115  A    between atoms: _280  and  _282
REMARK  116  A    between atoms: _282  and  _283
REMARK  117  A    between atoms: _282  and  _285
REMARK  118  A    between atoms: _285  and  _286
REMARK  119  A    between atoms: _286  and  _287
REMARK  120  A    between atoms: _287  and  _288
REMARK  121  A    between atoms: _297  and  _299
REMARK  122  A    between atoms: _299  and  _300
REMARK  123  A    between atoms: _299  and  _306
REMARK  124  A    between atoms: _300  and  _301
REMARK  125  A    between atoms: _301  and  _302
REMARK  126  A    between atoms: _302  and  _303
REMARK  127  A    between atoms: _303  and  _304
REMARK  128  A    between atoms: _311  and  _313
REMARK  129  A    between atoms: _313  and  _314
REMARK  130  A    between atoms: _313  and  _316
REMARK  131  A    between atoms: _316  and  _317
REMARK  132  A    between atoms: _319  and  _321
REMARK  133  A    between atoms: _321  and  _322
REMARK  134  A    between atoms: _321  and  _324
REMARK  135  A    between atoms: _324  and  _325
REMARK  136  A    between atoms: _325  and  _326
REMARK  137  A    between atoms: _326  and  _327
REMARK  138  A    between atoms: _327  and  _328
REMARK  139  A    between atoms: _332  and  _334
REMARK  140  A    between atoms: _334  and  _335
REMARK  141  A    between atoms: _338  and  _340
REMARK  142  A    between atoms: _340  and  _341
REMARK  143  A    between atoms: _340  and  _343
REMARK  144  A    between atoms: _343  and  _344
REMARK  145  A    between atoms: _347  and  _349
REMARK  146  A    between atoms: _349  and  _350
REMARK  147  A    between atoms: _349  and  _352
REMARK  148  A    between atoms: _352  and  _353
REMARK  149  A    between atoms: _358  and  _360
REMARK  150  A    between atoms: _360  and  _361
REMARK  151  A    between atoms: _360  and  _363
REMARK  152  A    between atoms: _363  and  _364
REMARK  153  A    between atoms: _367  and  _369
REMARK  154  A    between atoms: _369  and  _370
REMARK  155  A    between atoms: _372  and  _374
REMARK  156  A    between atoms: _374  and  _375
REMARK  157  A    between atoms: _374  and  _377
REMARK  158  A    between atoms: _377  and  _378
REMARK  159  A    between atoms: _378  and  _379
REMARK  160  A    between atoms: _379  and  _380
REMARK  161  A    between atoms: _380  and  _381
REMARK  162  A    between atoms: _386  and  _387
REMARK  163  A    between atoms: _392  and  _394
REMARK  164  A    between atoms: _394  and  _395
REMARK  165  A    between atoms: _398  and  _400
REMARK  166  A    between atoms: _400  and  _401
REMARK  167  A    between atoms: _400  and  _403
REMARK  168  A    between atoms: _405  and  _407
REMARK  169  A    between atoms: _407  and  _408
REMARK  170  A    between atoms: _411  and  _413
REMARK  171  A    between atoms: _413  and  _414
REMARK  172  A    between atoms: _413  and  _416
REMARK  173  A    between atoms: _416  and  _417
REMARK  174  A    between atoms: _419  and  _421
REMARK  175  A    between atoms: _421  and  _422
REMARK  176  A    between atoms: _421  and  _424
REMARK  177  A    between atoms: _424  and  _425
REMARK  178  A    between atoms: _428  and  _430
REMARK  179  A    between atoms: _430  and  _431
REMARK  180  A    between atoms: _430  and  _433
REMARK  181  A    between atoms: _433  and  _434
REMARK  182  A    between atoms: _437  and  _439
REMARK  183  A    between atoms: _439  and  _440
REMARK  184  A    between atoms: _439  and  _442
REMARK  185  A    between atoms: _442  and  _443
REMARK  186  A    between atoms: _443  and  _444
REMARK  187  A    between atoms: _449  and  _451
REMARK  188  A    between atoms: _451  and  _452
REMARK  189  A    between atoms: _451  and  _454
REMARK  190  A    between atoms: _454  and  _455
REMARK  191  A    between atoms: _461  and  _463
REMARK  192  A    between atoms: _463  and  _464
REMARK  193  A    between atoms: _463  and  _466
REMARK  194  A    between atoms: _466  and  _467
REMARK  195  A    between atoms: _467  and  _468
REMARK  196  A    between atoms: _468  and  _469
REMARK  197  A    between atoms: _469  and  _470
REMARK  198  A    between atoms: _474  and  _476
REMARK  199  A    between atoms: _476  and  _477
REMARK  200  A    between atoms: _476  and  _479
REMARK  201  A    between atoms: _479  and  _480
REMARK  202  A    between atoms: _485  and  _487
REMARK  203  A    between atoms: _487  and  _488
REMARK  204  A    between atoms: _487  and  _490
REMARK  205  A    between atoms: _490  and  _491
REMARK  206  A    between atoms: _497  and  _499
REMARK  207  A    between atoms: _499  and  _500
REMARK  208  A    between atoms: _499  and  _502
REMARK  209  A    between atoms: _502  and  _503
REMARK  210  A    between atoms: _503  and  _504
REMARK  211  A    between atoms: _507  and  _509
REMARK  212  A    between atoms: _509  and  _510
REMARK  213  A    between atoms: _509  and  _512
REMARK  214  A    between atoms: _512  and  _513
REMARK  215  A    between atoms: _513  and  _514
REMARK  216  A    between atoms: _519  and  _521
REMARK  217  A    between atoms: _521  and  _522
REMARK  218  A    between atoms: _521  and  _524
REMARK  219  A    between atoms: _524  and  _525
REMARK  220  A    between atoms: _525  and  _526
REMARK  221  A    between atoms: _526  and  _527
REMARK  222  A    between atoms: _536  and  _538
REMARK  223  A    between atoms: _538  and  _539
REMARK                            x       y       z     vdW  Elec       q    Type
REMARK                         _______ _______ _______ _____ _____    ______ ____
ROOT
ATOM      1  O   HOH     1      20.768  -9.118  16.510  0.00  0.00    +0.000 OA
ENDROOT
TORSDOF 0
REMARK  Name = ../refined-set-2016/2jfh/2jfh_pocket.pdb
REMARK  223 active torsions:
REMARK  status: ('A' for Active; 'I' for Inactive)
REMARK    1  A    between atoms: _1  and  _3
REMARK    2  A    between atoms: _3  and  _4
REMARK    3  A    between atoms: _3  and  _6
REMARK    4  A    between atoms: _6  and  _7
REMARK    5  A    between atoms: _10  and  _12
REMARK    6  A    between atoms: _12  and  _13
REMARK    7  A    between atoms: _12  and  _15
REMARK    8  A    between atoms: _15  and  _16
REMARK    9  A    between atoms: _19  and  _21
REMARK   10  A    between atoms: _21  and  _22
REMARK   11  A    between atoms: _24  and  _26
REMARK   12  A    between atoms: _26  and  _27
REMARK   13  A    between atoms: _26  and  _29
REMARK   14  A    between atoms: _29  and  _30
REMARK   15  A    between atoms: _33  and  _35
REMARK   16  A    between atoms: _35  and  _36
REMARK   17  A    between atoms: _38  and  _40
REMARK   18  A    between atoms: _40  and  _41
REMARK   19  A    between atoms: _40  and  _43
REMARK   20  A    between atoms: _43  and  _44
REMARK   21  A    between atoms: _47  and  _49
REMARK   22  A    between atoms: _49  and  _50
REMARK   23  A    between atoms: _49  and  _52
REMARK   24  A    between atoms: _52  and  _53
REMARK   25  A    between atoms: _53  and  _54
REMARK   26  A    between atoms: _56  and  _58
REMARK   27  A    between atoms: _58  and  _59
REMARK   28  A    between atoms: _58  and  _61
REMARK   29  A    between atoms: _61  and  _62
REMARK   30  A    between atoms: _65  and  _67
REMARK   31  A    between atoms: _67  and  _68
REMARK   32  A    between atoms: _67  and  _70
REMARK   33  A    between atoms: _70  and  _71
REMARK   34  A    between atoms: _74  and  _76
REMARK   35  A    between atoms: _76  and  _77
REMARK   36  A    between atoms: _76  and  _79
REMARK   37  A    between atoms: _79  and  _80
REMARK   38  A    between atoms: _80  and  _81
REMARK   39  A    between atoms: _81  and  _82
REMARK   40  A    between atoms: _92  and  _93
REMARK   41  A    between atoms: _99  and  _100
REMARK   42  A    between atoms: _105  and  _107
REMARK   43  A    between atoms: _107  and  _108
REMARK   44  A    between atoms: _110  and  _112
REMARK   45  A    between atoms: _112  and  _113
REMARK   46  A    between atoms: _112  and  _115
REMARK   47  A    between atoms: _115  and  _116
REMARK   48  A    between atoms: _118  and  _120
REMARK   49  A    between atoms: _120  and  _121
REMARK   50  A    between atoms: _120  and  _123
REMARK   51  A    between atoms: _123  and  _124
REMARK   52  A    between atoms: _127  and  _129
REMARK   53  A    between atoms: _129  and  _130
REMARK   54  A    between atoms: _133  and  _135
REMARK   55  A    between atoms: _135  and  _136
REMARK   56  A    between atoms: _135  and  _138
REMARK   57  A    between atoms: _138  and  _139
REMARK   58  A    between atoms: _142  and  _143
REMARK   59  A    between atoms: _148  and  _150
REMARK   60  A    between atoms: _150  and  _151
REMARK   61  A    between atoms: _153  and  _155
REMARK   62  A    between atoms: _155  and  _156
REMARK   63  A    between atoms: _155  and  _158
REMARK   64  A    between atoms: _158  and  _159
REMARK   65  A    between atoms: _162  and  _164
REMARK   66  A    between atoms: _164  and  _165
REMARK   67  A    between atoms: _168  and  _170
REMARK   68  A    between atoms: _170  and  _171
REMARK   69  A    between atoms: _170  and  _173
REMARK   70  A    between atoms: _173  and  _174
REMARK   71  A    between atoms: _179  and  _181
REMARK   72  A    between atoms: _181  and  _182
REMARK   73  A    between atoms: _181  and  _184
REMARK   74  A    between atoms: _184  and  _185
REMARK   75  A    between atoms: _187  and  _189
REMARK   76  A    between atoms: _189  and  _190
REMARK   77  A    between atoms: _189  and  _192
REMARK   78  A    between atoms: _192  and  _193
REMARK   79  A    between atoms: _193  and  _194
REMARK   80  A    between atoms: _194  and  _195
REMARK   81  A    between atoms: _195  and  _196
REMARK   82  A    between atoms: _200  and  _202
REMARK   83  A    between atoms: _202  and  _203
REMARK   84  A    between atoms: _202  and  _205
REMARK   85  A    between atoms: _205  and  _206
REMARK   86  A    between atoms: _211  and  _213
REMARK   87  A    between atoms: _213  and  _214
REMARK   88  A    between atoms: _213  and  _216
REMARK   89  A    between atoms: _216  and  _217
REMARK   90  A    between atoms: _219  and  _221
REMARK   91  A    between atoms: _221  and  _222
REMARK   92  A    between atoms: _221  and  _224
REMARK   93  A    between atoms: _224  and  _225
REMARK   94  A    between atoms: _227  and  _229
REMARK   95  A    between atoms: _229  and  _230
REMARK   96  A    between atoms: _229  and  _232
REMARK   97  A    between atoms: _232  and  _233
REMARK   98  A    between atoms: _239  and  _241
REMARK   99  A    between atoms: _241  and  _242
REMARK  100  A    between atoms: _241  and  _244
REMARK  101  A    between atoms: _244  and  _245
REMARK  102  A    between atoms: _245  and  _246
REMARK  103  A    between atoms: _251  and  _253
REMARK  104  A    between atoms: _253  and  _254
REMARK  105  A    between atoms: _253  and  _256
REMARK  106  A    between atoms: _256  and  _257
REMARK  107  A    between atoms: _260  and  _262
REMARK  108  A    between atoms: _262  and  _263
REMARK  109  A    between atoms: _262  and  _265
REMARK  110  A    between atoms: _265  and  _266
REMARK  111  A    between atoms: _271  and  _273
REMARK  112  A    between atoms: _273  and  _274
REMARK  113  A    between atoms: _273  and  _276
REMARK  114  A    between atoms: _276  and  _277
REMARK  115  A    between atoms: _280  and  _282
REMARK  116  A    between atoms: _282  and  _283
REMARK  117  A    between atoms: _282  and  _285
REMARK  118  A    between atoms: _285  and  _286
REMARK  119  A    between atoms: _286  and  _287
REMARK  120  A    between atoms: _287  and  _288
REMARK  121  A    between atoms: _297  and  _299
REMARK  122  A    between atoms: _299  and  _300
REMARK  123  A    between atoms: _299  and  _306
REMARK  124  A    between atoms: _300  and  _301
REMARK  125  A    between atoms: _301  and  _302
REMARK  126  A    between atoms: _302  and  _303
REMARK  127  A    between atoms: _303  and  _304
REMARK  128  A    between atoms: _311  and  _313
REMARK  129  A    between atoms: _313  and  _314
REMARK  130  A    between atoms: _313  and  _316
REMARK  131  A    between atoms: _316  and  _317
REMARK  132  A    between atoms: _319  and  _321
REMARK  133  A    between atoms: _321  and  _322
REMARK  134  A    between atoms: _321  and  _324
REMARK  135  A    between atoms: _324  and  _325
REMARK  136  A    between atoms: _325  and  _326
REMARK  137  A    between atoms: _326  and  _327
REMARK  138  A    between atoms: _327  and  _328
REMARK  139  A    between atoms: _332  and  _334
REMARK  140  A    between atoms: _334  and  _335
REMARK  141  A    between atoms: _338  and  _340
REMARK  142  A    between atoms: _340  and  _341
REMARK  143  A    between atoms: _340  and  _343
REMARK  144  A    between atoms: _343  and  _344
REMARK  145  A    between atoms: _347  and  _349
REMARK  146  A    between atoms: _349  and  _350
REMARK  147  A    between atoms: _349  and  _352
REMARK  148  A    between atoms: _352  and  _353
REMARK  149  A    between atoms: _358  and  _360
REMARK  150  A    between atoms: _360  and  _361
REMARK  151  A    between atoms: _360  and  _363
REMARK  152  A    between atoms: _363  and  _364
REMARK  153  A    between atoms: _367  and  _369
REMARK  154  A    between atoms: _369  and  _370
REMARK  155  A    between atoms: _372  and  _374
REMARK  156  A    between atoms: _374  and  _375
REMARK  157  A    between atoms: _374  and  _377
REMARK  158  A    between atoms: _377  and  _378
REMARK  159  A    between atoms: _378  and  _379
REMARK  160  A    between atoms: _379  and  _380
REMARK  161  A    between atoms: _380  and  _381
REMARK  162  A    between atoms: _386  and  _387
REMARK  163  A    between atoms: _392  and  _394
REMARK  164  A    between atoms: _394  and  _395
REMARK  165  A    between atoms: _398  and  _400
REMARK  166  A    between atoms: _400  and  _401
REMARK  167  A    between atoms: _400  and  _403
REMARK  168  A    between atoms: _405  and  _407
REMARK  169  A    between atoms: _407  and  _408
REMARK  170  A    between atoms: _411  and  _413
REMARK  171  A    between atoms: _413  and  _414
REMARK  172  A    between atoms: _413  and  _416
REMARK  173  A    between atoms: _416  and  _417
REMARK  174  A    between atoms: _419  and  _421
REMARK  175  A    between atoms: _421  and  _422
REMARK  176  A    between atoms: _421  and  _424
REMARK  177  A    between atoms: _424  and  _425
REMARK  178  A    between atoms: _428  and  _430
REMARK  179  A    between atoms: _430  and  _431
REMARK  180  A    between atoms: _430  and  _433
REMARK  181  A    between atoms: _433  and  _434
REMARK  182  A    between atoms: _437  and  _439
REMARK  183  A    between atoms: _439  and  _440
REMARK  184  A    between atoms: _439  and  _442
REMARK  185  A    between atoms: _442  and  _443
REMARK  186  A    between atoms: _443  and  _444
REMARK  187  A    between atoms: _449  and  _451
REMARK  188  A    between atoms: _451  and  _452
REMARK  189  A    between atoms: _451  and  _454
REMARK  190  A    between atoms: _454  and  _455
REMARK  191  A    between atoms: _461  and  _463
REMARK  192  A    between atoms: _463  and  _464
REMARK  193  A    between atoms: _463  and  _466
REMARK  194  A    between atoms: _466  and  _467
REMARK  195  A    between atoms: _467  and  _468
REMARK  196  A    between atoms: _468  and  _469
REMARK  197  A    between atoms: _469  and  _470
REMARK  198  A    between atoms: _474  and  _476
REMARK  199  A    between atoms: _476  and  _477
REMARK  200  A    between atoms: _476  and  _479
REMARK  201  A    between atoms: _479  and  _480
REMARK  202  A    between atoms: _485  and  _487
REMARK  203  A    between atoms: _487  and  _488
REMARK  204  A    between atoms: _487  and  _490
REMARK  205  A    between atoms: _490  and  _491
REMARK  206  A    between atoms: _497  and  _499
REMARK  207  A    between atoms: _499  and  _500
REMARK  208  A    between atoms: _499  and  _502
REMARK  209  A    between atoms: _502  and  _503
REMARK  210  A    between atoms: _503  and  _504
REMARK  211  A    between atoms: _507  and  _509
REMARK  212  A    between atoms: _509  and  _510
REMARK  213  A    between atoms: _509  and  _512
REMARK  214  A    between atoms: _512  and  _513
REMARK  215  A    between atoms: _513  and  _514
REMARK  216  A    between atoms: _519  and  _521
REMARK  217  A    between atoms: _521  and  _522
REMARK  218  A    between atoms: _521  and  _524
REMARK  219  A    between atoms: _524  and  _525
REMARK  220  A    between atoms: _525  and  _526
REMARK  221  A    between atoms: _526  and  _527
REMARK  222  A    between atoms: _536  and  _538
REMARK  223  A    between atoms: _538  and  _539
REMARK                            x       y       z     vdW  Elec       q    Type
REMARK                         _______ _______ _______ _____ _____    ______ ____
ROOT
ATOM      1  O   HOH     1      26.838 -11.184  23.890  0.00  0.00    +0.000 OA
ENDROOT
TORSDOF 0
REMARK  Name = ../refined-set-2016/2jfh/2jfh_pocket.pdb
REMARK  223 active torsions:
REMARK  status: ('A' for Active; 'I' for Inactive)
REMARK    1  A    between atoms: _1  and  _3
REMARK    2  A    between atoms: _3  and  _4
REMARK    3  A    between atoms: _3  and  _6
REMARK    4  A    between atoms: _6  and  _7
REMARK    5  A    between atoms: _10  and  _12
REMARK    6  A    between atoms: _12  and  _13
REMARK    7  A    between atoms: _12  and  _15
REMARK    8  A    between atoms: _15  and  _16
REMARK    9  A    between atoms: _19  and  _21
REMARK   10  A    between atoms: _21  and  _22
REMARK   11  A    between atoms: _24  and  _26
REMARK   12  A    between atoms: _26  and  _27
REMARK   13  A    between atoms: _26  and  _29
REMARK   14  A    between atoms: _29  and  _30
REMARK   15  A    between atoms: _33  and  _35
REMARK   16  A    between atoms: _35  and  _36
REMARK   17  A    between atoms: _38  and  _40
REMARK   18  A    between atoms: _40  and  _41
REMARK   19  A    between atoms: _40  and  _43
REMARK   20  A    between atoms: _43  and  _44
REMARK   21  A    between atoms: _47  and  _49
REMARK   22  A    between atoms: _49  and  _50
REMARK   23  A    between atoms: _49  and  _52
REMARK   24  A    between atoms: _52  and  _53
REMARK   25  A    between atoms: _53  and  _54
REMARK   26  A    between atoms: _56  and  _58
REMARK   27  A    between atoms: _58  and  _59
REMARK   28  A    between atoms: _58  and  _61
REMARK   29  A    between atoms: _61  and  _62
REMARK   30  A    between atoms: _65  and  _67
REMARK   31  A    between atoms: _67  and  _68
REMARK   32  A    between atoms: _67  and  _70
REMARK   33  A    between atoms: _70  and  _71
REMARK   34  A    between atoms: _74  and  _76
REMARK   35  A    between atoms: _76  and  _77
REMARK   36  A    between atoms: _76  and  _79
REMARK   37  A    between atoms: _79  and  _80
REMARK   38  A    between atoms: _80  and  _81
REMARK   39  A    between atoms: _81  and  _82
REMARK   40  A    between atoms: _92  and  _93
REMARK   41  A    between atoms: _99  and  _100
REMARK   42  A    between atoms: _105  and  _107
REMARK   43  A    between atoms: _107  and  _108
REMARK   44  A    between atoms: _110  and  _112
REMARK   45  A    between atoms: _112  and  _113
REMARK   46  A    between atoms: _112  and  _115
REMARK   47  A    between atoms: _115  and  _116
REMARK   48  A    between atoms: _118  and  _120
REMARK   49  A    between atoms: _120  and  _121
REMARK   50  A    between atoms: _120  and  _123
REMARK   51  A    between atoms: _123  and  _124
REMARK   52  A    between atoms: _127  and  _129
REMARK   53  A    between atoms: _129  and  _130
REMARK   54  A    between atoms: _133  and  _135
REMARK   55  A    between atoms: _135  and  _136
REMARK   56  A    between atoms: _135  and  _138
REMARK   57  A    between atoms: _138  and  _139
REMARK   58  A    between atoms: _142  and  _143
REMARK   59  A    between atoms: _148  and  _150
REMARK   60  A    between atoms: _150  and  _151
REMARK   61  A    between atoms: _153  and  _155
REMARK   62  A    between atoms: _155  and  _156
REMARK   63  A    between atoms: _155  and  _158
REMARK   64  A    between atoms: _158  and  _159
REMARK   65  A    between atoms: _162  and  _164
REMARK   66  A    between atoms: _164  and  _165
REMARK   67  A    between atoms: _168  and  _170
REMARK   68  A    between atoms: _170  and  _171
REMARK   69  A    between atoms: _170  and  _173
REMARK   70  A    between atoms: _173  and  _174
REMARK   71  A    between atoms: _179  and  _181
REMARK   72  A    between atoms: _181  and  _182
REMARK   73  A    between atoms: _181  and  _184
REMARK   74  A    between atoms: _184  and  _185
REMARK   75  A    between atoms: _187  and  _189
REMARK   76  A    between atoms: _189  and  _190
REMARK   77  A    between atoms: _189  and  _192
REMARK   78  A    between atoms: _192  and  _193
REMARK   79  A    between atoms: _193  and  _194
REMARK   80  A    between atoms: _194  and  _195
REMARK   81  A    between atoms: _195  and  _196
REMARK   82  A    between atoms: _200  and  _202
REMARK   83  A    between atoms: _202  and  _203
REMARK   84  A    between atoms: _202  and  _205
REMARK   85  A    between atoms: _205  and  _206
REMARK   86  A    between atoms: _211  and  _213
REMARK   87  A    between atoms: _213  and  _214
REMARK   88  A    between atoms: _213  and  _216
REMARK   89  A    between atoms: _216  and  _217
REMARK   90  A    between atoms: _219  and  _221
REMARK   91  A    between atoms: _221  and  _222
REMARK   92  A    between atoms: _221  and  _224
REMARK   93  A    between atoms: _224  and  _225
REMARK   94  A    between atoms: _227  and  _229
REMARK   95  A    between atoms: _229  and  _230
REMARK   96  A    between atoms: _229  and  _232
REMARK   97  A    between atoms: _232  and  _233
REMARK   98  A    between atoms: _239  and  _241
REMARK   99  A    between atoms: _241  and  _242
REMARK  100  A    between atoms: _241  and  _244
REMARK  101  A    between atoms: _244  and  _245
REMARK  102  A    between atoms: _245  and  _246
REMARK  103  A    between atoms: _251  and  _253
REMARK  104  A    between atoms: _253  and  _254
REMARK  105  A    between atoms: _253  and  _256
REMARK  106  A    between atoms: _256  and  _257
REMARK  107  A    between atoms: _260  and  _262
REMARK  108  A    between atoms: _262  and  _263
REMARK  109  A    between atoms: _262  and  _265
REMARK  110  A    between atoms: _265  and  _266
REMARK  111  A    between atoms: _271  and  _273
REMARK  112  A    between atoms: _273  and  _274
REMARK  113  A    between atoms: _273  and  _276
REMARK  114  A    between atoms: _276  and  _277
REMARK  115  A    between atoms: _280  and  _282
REMARK  116  A    between atoms: _282  and  _283
REMARK  117  A    between atoms: _282  and  _285
REMARK  118  A    between atoms: _285  and  _286
REMARK  119  A    between atoms: _286  and  _287
REMARK  120  A    between atoms: _287  and  _288
REMARK  121  A    between atoms: _297  and  _299
REMARK  122  A    between atoms: _299  and  _300
REMARK  123  A    between atoms: _299  and  _306
REMARK  124  A    between atoms: _300  and  _301
REMARK  125  A    between atoms: _301  and  _302
REMARK  126  A    between atoms: _302  and  _303
REMARK  127  A    between atoms: _303  and  _304
REMARK  128  A    between atoms: _311  and  _313
REMARK  129  A    between atoms: _313  and  _314
REMARK  130  A    between atoms: _313  and  _316
REMARK  131  A    between atoms: _316  and  _317
REMARK  132  A    between atoms: _319  and  _321
REMARK  133  A    between atoms: _321  and  _322
REMARK  134  A    between atoms: _321  and  _324
REMARK  135  A    between atoms: _324  and  _325
REMARK  136  A    between atoms: _325  and  _326
REMARK  137  A    between atoms: _326  and  _327
REMARK  138  A    between atoms: _327  and  _328
REMARK  139  A    between atoms: _332  and  _334
REMARK  140  A    between atoms: _334  and  _335
REMARK  141  A    between atoms: _338  and  _340
REMARK  142  A    between atoms: _340  and  _341
REMARK  143  A    between atoms: _340  and  _343
REMARK  144  A    between atoms: _343  and  _344
REMARK  145  A    between atoms: _347  and  _349
REMARK  146  A    between atoms: _349  and  _350
REMARK  147  A    between atoms: _349  and  _352
REMARK  148  A    between atoms: _352  and  _353
REMARK  149  A    between atoms: _358  and  _360
REMARK  150  A    between atoms: _360  and  _361
REMARK  151  A    between atoms: _360  and  _363
REMARK  152  A    between atoms: _363  and  _364
REMARK  153  A    between atoms: _367  and  _369
REMARK  154  A    between atoms: _369  and  _370
REMARK  155  A    between atoms: _372  and  _374
REMARK  156  A    between atoms: _374  and  _375
REMARK  157  A    between atoms: _374  and  _377
REMARK  158  A    between atoms: _377  and  _378
REMARK  159  A    between atoms: _378  and  _379
REMARK  160  A    between atoms: _379  and  _380
REMARK  161  A    between atoms: _380  and  _381
REMARK  162  A    between atoms: _386  and  _387
REMARK  163  A    between atoms: _392  and  _394
REMARK  164  A    between atoms: _394  and  _395
REMARK  165  A    between atoms: _398  and  _400
REMARK  166  A    between atoms: _400  and  _401
REMARK  167  A    between atoms: _400  and  _403
REMARK  168  A    between atoms: _405  and  _407
REMARK  169  A    between atoms: _407  and  _408
REMARK  170  A    between atoms: _411  and  _413
REMARK  171  A    between atoms: _413  and  _414
REMARK  172  A    between atoms: _413  and  _416
REMARK  173  A    between atoms: _416  and  _417
REMARK  174  A    between atoms: _419  and  _421
REMARK  175  A    between atoms: _421  and  _422
REMARK  176  A    between atoms: _421  and  _424
REMARK  177  A    between atoms: _424  and  _425
REMARK  178  A    between atoms: _428  and  _430
REMARK  179  A    between atoms: _430  and  _431
REMARK  180  A    between atoms: _430  and  _433
REMARK  181  A    between atoms: _433  and  _434
REMARK  182  A    between atoms: _437  and  _439
REMARK  183  A    between atoms: _439  and  _440
REMARK  184  A    between atoms: _439  and  _442
REMARK  185  A    between atoms: _442  and  _443
REMARK  186  A    between atoms: _443  and  _444
REMARK  187  A    between atoms: _449  and  _451
REMARK  188  A    between atoms: _451  and  _452
REMARK  189  A    between atoms: _451  and  _454
REMARK  190  A    between atoms: _454  and  _455
REMARK  191  A    between atoms: _461  and  _463
REMARK  192  A    between atoms: _463  and  _464
REMARK  193  A    between atoms: _463  and  _466
REMARK  194  A    between atoms: _466  and  _467
REMARK  195  A    between atoms: _467  and  _468
REMARK  196  A    between atoms: _468  and  _469
REMARK  197  A    between atoms: _469  and  _470
REMARK  198  A    between atoms: _474  and  _476
REMARK  199  A    between atoms: _476  and  _477
REMARK  200  A    between atoms: _476  and  _479
REMARK  201  A    between atoms: _479  and  _480
REMARK  202  A    between atoms: _485  and  _487
REMARK  203  A    between atoms: _487  and  _488
REMARK  204  A    between atoms: _487  and  _490
REMARK  205  A    between atoms: _490  and  _491
REMARK  206  A    between atoms: _497  and  _499
REMARK  207  A    between atoms: _499  and  _500
REMARK  208  A    between atoms: _499  and  _502
REMARK  209  A    between atoms: _502  and  _503
REMARK  210  A    between atoms: _503  and  _504
REMARK  211  A    between atoms: _507  and  _509
REMARK  212  A    between atoms: _509  and  _510
REMARK  213  A    between atoms: _509  and  _512
REMARK  214  A    between atoms: _512  and  _513
REMARK  215  A    between atoms: _513  and  _514
REMARK  216  A    between atoms: _519  and  _521
REMARK  217  A    between atoms: _521  and  _522
REMARK  218  A    between atoms: _521  and  _524
REMARK  219  A    between atoms: _524  and  _525
REMARK  220  A    between atoms: _525  and  _526
REMARK  221  A    between atoms: _526  and  _527
REMARK  222  A    between atoms: _536  and  _538
REMARK  223  A    between atoms: _538  and  _539
REMARK                            x       y       z     vdW  Elec       q    Type
REMARK                         _______ _______ _______ _____ _____    ______ ____
ROOT
ATOM      1  O   HOH     1      26.456 -11.017  16.614  0.00  0.00    +0.000 OA
ENDROOT
TORSDOF 0
REMARK  Name = ../refined-set-2016/2jfh/2jfh_pocket.pdb
REMARK  223 active torsions:
REMARK  status: ('A' for Active; 'I' for Inactive)
REMARK    1  A    between atoms: _1  and  _3
REMARK    2  A    between atoms: _3  and  _4
REMARK    3  A    between atoms: _3  and  _6
REMARK    4  A    between atoms: _6  and  _7
REMARK    5  A    between atoms: _10  and  _12
REMARK    6  A    between atoms: _12  and  _13
REMARK    7  A    between atoms: _12  and  _15
REMARK    8  A    between atoms: _15  and  _16
REMARK    9  A    between atoms: _19  and  _21
REMARK   10  A    between atoms: _21  and  _22
REMARK   11  A    between atoms: _24  and  _26
REMARK   12  A    between atoms: _26  and  _27
REMARK   13  A    between atoms: _26  and  _29
REMARK   14  A    between atoms: _29  and  _30
REMARK   15  A    between atoms: _33  and  _35
REMARK   16  A    between atoms: _35  and  _36
REMARK   17  A    between atoms: _38  and  _40
REMARK   18  A    between atoms: _40  and  _41
REMARK   19  A    between atoms: _40  and  _43
REMARK   20  A    between atoms: _43  and  _44
REMARK   21  A    between atoms: _47  and  _49
REMARK   22  A    between atoms: _49  and  _50
REMARK   23  A    between atoms: _49  and  _52
REMARK   24  A    between atoms: _52  and  _53
REMARK   25  A    between atoms: _53  and  _54
REMARK   26  A    between atoms: _56  and  _58
REMARK   27  A    between atoms: _58  and  _59
REMARK   28  A    between atoms: _58  and  _61
REMARK   29  A    between atoms: _61  and  _62
REMARK   30  A    between atoms: _65  and  _67
REMARK   31  A    between atoms: _67  and  _68
REMARK   32  A    between atoms: _67  and  _70
REMARK   33  A    between atoms: _70  and  _71
REMARK   34  A    between atoms: _74  and  _76
REMARK   35  A    between atoms: _76  and  _77
REMARK   36  A    between atoms: _76  and  _79
REMARK   37  A    between atoms: _79  and  _80
REMARK   38  A    between atoms: _80  and  _81
REMARK   39  A    between atoms: _81  and  _82
REMARK   40  A    between atoms: _92  and  _93
REMARK   41  A    between atoms: _99  and  _100
REMARK   42  A    between atoms: _105  and  _107
REMARK   43  A    between atoms: _107  and  _108
REMARK   44  A    between atoms: _110  and  _112
REMARK   45  A    between atoms: _112  and  _113
REMARK   46  A    between atoms: _112  and  _115
REMARK   47  A    between atoms: _115  and  _116
REMARK   48  A    between atoms: _118  and  _120
REMARK   49  A    between atoms: _120  and  _121
REMARK   50  A    between atoms: _120  and  _123
REMARK   51  A    between atoms: _123  and  _124
REMARK   52  A    between atoms: _127  and  _129
REMARK   53  A    between atoms: _129  and  _130
REMARK   54  A    between atoms: _133  and  _135
REMARK   55  A    between atoms: _135  and  _136
REMARK   56  A    between atoms: _135  and  _138
REMARK   57  A    between atoms: _138  and  _139
REMARK   58  A    between atoms: _142  and  _143
REMARK   59  A    between atoms: _148  and  _150
REMARK   60  A    between atoms: _150  and  _151
REMARK   61  A    between atoms: _153  and  _155
REMARK   62  A    between atoms: _155  and  _156
REMARK   63  A    between atoms: _155  and  _158
REMARK   64  A    between atoms: _158  and  _159
REMARK   65  A    between atoms: _162  and  _164
REMARK   66  A    between atoms: _164  and  _165
REMARK   67  A    between atoms: _168  and  _170
REMARK   68  A    between atoms: _170  and  _171
REMARK   69  A    between atoms: _170  and  _173
REMARK   70  A    between atoms: _173  and  _174
REMARK   71  A    between atoms: _179  and  _181
REMARK   72  A    between atoms: _181  and  _182
REMARK   73  A    between atoms: _181  and  _184
REMARK   74  A    between atoms: _184  and  _185
REMARK   75  A    between atoms: _187  and  _189
REMARK   76  A    between atoms: _189  and  _190
REMARK   77  A    between atoms: _189  and  _192
REMARK   78  A    between atoms: _192  and  _193
REMARK   79  A    between atoms: _193  and  _194
REMARK   80  A    between atoms: _194  and  _195
REMARK   81  A    between atoms: _195  and  _196
REMARK   82  A    between atoms: _200  and  _202
REMARK   83  A    between atoms: _202  and  _203
REMARK   84  A    between atoms: _202  and  _205
REMARK   85  A    between atoms: _205  and  _206
REMARK   86  A    between atoms: _211  and  _213
REMARK   87  A    between atoms: _213  and  _214
REMARK   88  A    between atoms: _213  and  _216
REMARK   89  A    between atoms: _216  and  _217
REMARK   90  A    between atoms: _219  and  _221
REMARK   91  A    between atoms: _221  and  _222
REMARK   92  A    between atoms: _221  and  _224
REMARK   93  A    between atoms: _224  and  _225
REMARK   94  A    between atoms: _227  and  _229
REMARK   95  A    between atoms: _229  and  _230
REMARK   96  A    between atoms: _229  and  _232
REMARK   97  A    between atoms: _232  and  _233
REMARK   98  A    between atoms: _239  and  _241
REMARK   99  A    between atoms: _241  and  _242
REMARK  100  A    between atoms: _241  and  _244
REMARK  101  A    between atoms: _244  and  _245
REMARK  102  A    between atoms: _245  and  _246
REMARK  103  A    between atoms: _251  and  _253
REMARK  104  A    between atoms: _253  and  _254
REMARK  105  A    between atoms: _253  and  _256
REMARK  106  A    between atoms: _256  and  _257
REMARK  107  A    between atoms: _260  and  _262
REMARK  108  A    between atoms: _262  and  _263
REMARK  109  A    between atoms: _262  and  _265
REMARK  110  A    between atoms: _265  and  _266
REMARK  111  A    between atoms: _271  and  _273
REMARK  112  A    between atoms: _273  and  _274
REMARK  113  A    between atoms: _273  and  _276
REMARK  114  A    between atoms: _276  and  _277
REMARK  115  A    between atoms: _280  and  _282
REMARK  116  A    between atoms: _282  and  _283
REMARK  117  A    between atoms: _282  and  _285
REMARK  118  A    between atoms: _285  and  _286
REMARK  119  A    between atoms: _286  and  _287
REMARK  120  A    between atoms: _287  and  _288
REMARK  121  A    between atoms: _297  and  _299
REMARK  122  A    between atoms: _299  and  _300
REMARK  123  A    between atoms: _299  and  _306
REMARK  124  A    between atoms: _300  and  _301
REMARK  125  A    between atoms: _301  and  _302
REMARK  126  A    between atoms: _302  and  _303
REMARK  127  A    between atoms: _303  and  _304
REMARK  128  A    between atoms: _311  and  _313
REMARK  129  A    between atoms: _313  and  _314
REMARK  130  A    between atoms: _313  and  _316
REMARK  131  A    between atoms: _316  and  _317
REMARK  132  A    between atoms: _319  and  _321
REMARK  133  A    between atoms: _321  and  _322
REMARK  134  A    between atoms: _321  and  _324
REMARK  135  A    between atoms: _324  and  _325
REMARK  136  A    between atoms: _325  and  _326
REMARK  137  A    between atoms: _326  and  _327
REMARK  138  A    between atoms: _327  and  _328
REMARK  139  A    between atoms: _332  and  _334
REMARK  140  A    between atoms: _334  and  _335
REMARK  141  A    between atoms: _338  and  _340
REMARK  142  A    between atoms: _340  and  _341
REMARK  143  A    between atoms: _340  and  _343
REMARK  144  A    between atoms: _343  and  _344
REMARK  145  A    between atoms: _347  and  _349
REMARK  146  A    between atoms: _349  and  _350
REMARK  147  A    between atoms: _349  and  _352
REMARK  148  A    between atoms: _352  and  _353
REMARK  149  A    between atoms: _358  and  _360
REMARK  150  A    between atoms: _360  and  _361
REMARK  151  A    between atoms: _360  and  _363
REMARK  152  A    between atoms: _363  and  _364
REMARK  153  A    between atoms: _367  and  _369
REMARK  154  A    between atoms: _369  and  _370
REMARK  155  A    between atoms: _372  and  _374
REMARK  156  A    between atoms: _374  and  _375
REMARK  157  A    between atoms: _374  and  _377
REMARK  158  A    between atoms: _377  and  _378
REMARK  159  A    between atoms: _378  and  _379
REMARK  160  A    between atoms: _379  and  _380
REMARK  161  A    between atoms: _380  and  _381
REMARK  162  A    between atoms: _386  and  _387
REMARK  163  A    between atoms: _392  and  _394
REMARK  164  A    between atoms: _394  and  _395
REMARK  165  A    between atoms: _398  and  _400
REMARK  166  A    between atoms: _400  and  _401
REMARK  167  A    between atoms: _400  and  _403
REMARK  168  A    between atoms: _405  and  _407
REMARK  169  A    between atoms: _407  and  _408
REMARK  170  A    between atoms: _411  and  _413
REMARK  171  A    between atoms: _413  and  _414
REMARK  172  A    between atoms: _413  and  _416
REMARK  173  A    between atoms: _416  and  _417
REMARK  174  A    between atoms: _419  and  _421
REMARK  175  A    between atoms: _421  and  _422
REMARK  176  A    between atoms: _421  and  _424
REMARK  177  A    between atoms: _424  and  _425
REMARK  178  A    between atoms: _428  and  _430
REMARK  179  A    between atoms: _430  and  _431
REMARK  180  A    between atoms: _430  and  _433
REMARK  181  A    between atoms: _433  and  _434
REMARK  182  A    between atoms: _437  and  _439
REMARK  183  A    between atoms: _439  and  _440
REMARK  184  A    between atoms: _439  and  _442
REMARK  185  A    between atoms: _442  and  _443
REMARK  186  A    between atoms: _443  and  _444
REMARK  187  A    between atoms: _449  and  _451
REMARK  188  A    between atoms: _451  and  _452
REMARK  189  A    between atoms: _451  and  _454
REMARK  190  A    between atoms: _454  and  _455
REMARK  191  A    between atoms: _461  and  _463
REMARK  192  A    between atoms: _463  and  _464
REMARK  193  A    between atoms: _463  and  _466
REMARK  194  A    between atoms: _466  and  _467
REMARK  195  A    between atoms: _467  and  _468
REMARK  196  A    between atoms: _468  and  _469
REMARK  197  A    between atoms: _469  and  _470
REMARK  198  A    between atoms: _474  and  _476
REMARK  199  A    between atoms: _476  and  _477
REMARK  200  A    between atoms: _476  and  _479
REMARK  201  A    between atoms: _479  and  _480
REMARK  202  A    between atoms: _485  and  _487
REMARK  203  A    between atoms: _487  and  _488
REMARK  204  A    between atoms: _487  and  _490
REMARK  205  A    between atoms: _490  and  _491
REMARK  206  A    between atoms: _497  and  _499
REMARK  207  A    between atoms: _499  and  _500
REMARK  208  A    between atoms: _499  and  _502
REMARK  209  A    between atoms: _502  and  _503
REMARK  210  A    between atoms: _503  and  _504
REMARK  211  A    between atoms: _507  and  _509
REMARK  212  A    between atoms: _509  and  _510
REMARK  213  A    between atoms: _509  and  _512
REMARK  214  A    between atoms: _512  and  _513
REMARK  215  A    between atoms: _513  and  _514
REMARK  216  A    between atoms: _519  and  _521
REMARK  217  A    between atoms: _521  and  _522
REMARK  218  A    between atoms: _521  and  _524
REMARK  219  A    between atoms: _524  and  _525
REMARK  220  A    between atoms: _525  and  _526
REMARK  221  A    between atoms: _526  and  _527
REMARK  222  A    between atoms: _536  and  _538
REMARK  223  A    between atoms: _538  and  _539
REMARK                            x       y       z     vdW  Elec       q    Type
REMARK                         _______ _______ _______ _____ _____    ______ ____
ROOT
ATOM      1  O   HOH     1      21.058  -7.684  22.644  0.00  0.00    +0.000 OA
ENDROOT
TORSDOF 0
REMARK  Name = ../refined-set-2016/2jfh/2jfh_pocket.pdb
REMARK  223 active torsions:
REMARK  status: ('A' for Active; 'I' for Inactive)
REMARK    1  A    between atoms: _1  and  _3
REMARK    2  A    between atoms: _3  and  _4
REMARK    3  A    between atoms: _3  and  _6
REMARK    4  A    between atoms: _6  and  _7
REMARK    5  A    between atoms: _10  and  _12
REMARK    6  A    between atoms: _12  and  _13
REMARK    7  A    between atoms: _12  and  _15
REMARK    8  A    between atoms: _15  and  _16
REMARK    9  A    between atoms: _19  and  _21
REMARK   10  A    between atoms: _21  and  _22
REMARK   11  A    between atoms: _24  and  _26
REMARK   12  A    between atoms: _26  and  _27
REMARK   13  A    between atoms: _26  and  _29
REMARK   14  A    between atoms: _29  and  _30
REMARK   15  A    between atoms: _33  and  _35
REMARK   16  A    between atoms: _35  and  _36
REMARK   17  A    between atoms: _38  and  _40
REMARK   18  A    between atoms: _40  and  _41
REMARK   19  A    between atoms: _40  and  _43
REMARK   20  A    between atoms: _43  and  _44
REMARK   21  A    between atoms: _47  and  _49
REMARK   22  A    between atoms: _49  and  _50
REMARK   23  A    between atoms: _49  and  _52
REMARK   24  A    between atoms: _52  and  _53
REMARK   25  A    between atoms: _53  and  _54
REMARK   26  A    between atoms: _56  and  _58
REMARK   27  A    between atoms: _58  and  _59
REMARK   28  A    between atoms: _58  and  _61
REMARK   29  A    between atoms: _61  and  _62
REMARK   30  A    between atoms: _65  and  _67
REMARK   31  A    between atoms: _67  and  _68
REMARK   32  A    between atoms: _67  and  _70
REMARK   33  A    between atoms: _70  and  _71
REMARK   34  A    between atoms: _74  and  _76
REMARK   35  A    between atoms: _76  and  _77
REMARK   36  A    between atoms: _76  and  _79
REMARK   37  A    between atoms: _79  and  _80
REMARK   38  A    between atoms: _80  and  _81
REMARK   39  A    between atoms: _81  and  _82
REMARK   40  A    between atoms: _92  and  _93
REMARK   41  A    between atoms: _99  and  _100
REMARK   42  A    between atoms: _105  and  _107
REMARK   43  A    between atoms: _107  and  _108
REMARK   44  A    between atoms: _110  and  _112
REMARK   45  A    between atoms: _112  and  _113
REMARK   46  A    between atoms: _112  and  _115
REMARK   47  A    between atoms: _115  and  _116
REMARK   48  A    between atoms: _118  and  _120
REMARK   49  A    between atoms: _120  and  _121
REMARK   50  A    between atoms: _120  and  _123
REMARK   51  A    between atoms: _123  and  _124
REMARK   52  A    between atoms: _127  and  _129
REMARK   53  A    between atoms: _129  and  _130
REMARK   54  A    between atoms: _133  and  _135
REMARK   55  A    between atoms: _135  and  _136
REMARK   56  A    between atoms: _135  and  _138
REMARK   57  A    between atoms: _138  and  _139
REMARK   58  A    between atoms: _142  and  _143
REMARK   59  A    between atoms: _148  and  _150
REMARK   60  A    between atoms: _150  and  _151
REMARK   61  A    between atoms: _153  and  _155
REMARK   62  A    between atoms: _155  and  _156
REMARK   63  A    between atoms: _155  and  _158
REMARK   64  A    between atoms: _158  and  _159
REMARK   65  A    between atoms: _162  and  _164
REMARK   66  A    between atoms: _164  and  _165
REMARK   67  A    between atoms: _168  and  _170
REMARK   68  A    between atoms: _170  and  _171
REMARK   69  A    between atoms: _170  and  _173
REMARK   70  A    between atoms: _173  and  _174
REMARK   71  A    between atoms: _179  and  _181
REMARK   72  A    between atoms: _181  and  _182
REMARK   73  A    between atoms: _181  and  _184
REMARK   74  A    between atoms: _184  and  _185
REMARK   75  A    between atoms: _187  and  _189
REMARK   76  A    between atoms: _189  and  _190
REMARK   77  A    between atoms: _189  and  _192
REMARK   78  A    between atoms: _192  and  _193
REMARK   79  A    between atoms: _193  and  _194
REMARK   80  A    between atoms: _194  and  _195
REMARK   81  A    between atoms: _195  and  _196
REMARK   82  A    between atoms: _200  and  _202
REMARK   83  A    between atoms: _202  and  _203
REMARK   84  A    between atoms: _202  and  _205
REMARK   85  A    between atoms: _205  and  _206
REMARK   86  A    between atoms: _211  and  _213
REMARK   87  A    between atoms: _213  and  _214
REMARK   88  A    between atoms: _213  and  _216
REMARK   89  A    between atoms: _216  and  _217
REMARK   90  A    between atoms: _219  and  _221
REMARK   91  A    between atoms: _221  and  _222
REMARK   92  A    between atoms: _221  and  _224
REMARK   93  A    between atoms: _224  and  _225
REMARK   94  A    between atoms: _227  and  _229
REMARK   95  A    between atoms: _229  and  _230
REMARK   96  A    between atoms: _229  and  _232
REMARK   97  A    between atoms: _232  and  _233
REMARK   98  A    between atoms: _239  and  _241
REMARK   99  A    between atoms: _241  and  _242
REMARK  100  A    between atoms: _241  and  _244
REMARK  101  A    between atoms: _244  and  _245
REMARK  102  A    between atoms: _245  and  _246
REMARK  103  A    between atoms: _251  and  _253
REMARK  104  A    between atoms: _253  and  _254
REMARK  105  A    between atoms: _253  and  _256
REMARK  106  A    between atoms: _256  and  _257
REMARK  107  A    between atoms: _260  and  _262
REMARK  108  A    between atoms: _262  and  _263
REMARK  109  A    between atoms: _262  and  _265
REMARK  110  A    between atoms: _265  and  _266
REMARK  111  A    between atoms: _271  and  _273
REMARK  112  A    between atoms: _273  and  _274
REMARK  113  A    between atoms: _273  and  _276
REMARK  114  A    between atoms: _276  and  _277
REMARK  115  A    between atoms: _280  and  _282
REMARK  116  A    between atoms: _282  and  _283
REMARK  117  A    between atoms: _282  and  _285
REMARK  118  A    between atoms: _285  and  _286
REMARK  119  A    between atoms: _286  and  _287
REMARK  120  A    between atoms: _287  and  _288
REMARK  121  A    between atoms: _297  and  _299
REMARK  122  A    between atoms: _299  and  _300
REMARK  123  A    between atoms: _299  and  _306
REMARK  124  A    between atoms: _300  and  _301
REMARK  125  A    between atoms: _301  and  _302
REMARK  126  A    between atoms: _302  and  _303
REMARK  127  A    between atoms: _303  and  _304
REMARK  128  A    between atoms: _311  and  _313
REMARK  129  A    between atoms: _313  and  _314
REMARK  130  A    between atoms: _313  and  _316
REMARK  131  A    between atoms: _316  and  _317
REMARK  132  A    between atoms: _319  and  _321
REMARK  133  A    between atoms: _321  and  _322
REMARK  134  A    between atoms: _321  and  _324
REMARK  135  A    between atoms: _324  and  _325
REMARK  136  A    between atoms: _325  and  _326
REMARK  137  A    between atoms: _326  and  _327
REMARK  138  A    between atoms: _327  and  _328
REMARK  139  A    between atoms: _332  and  _334
REMARK  140  A    between atoms: _334  and  _335
REMARK  141  A    between atoms: _338  and  _340
REMARK  142  A    between atoms: _340  and  _341
REMARK  143  A    between atoms: _340  and  _343
REMARK  144  A    between atoms: _343  and  _344
REMARK  145  A    between atoms: _347  and  _349
REMARK  146  A    between atoms: _349  and  _350
REMARK  147  A    between atoms: _349  and  _352
REMARK  148  A    between atoms: _352  and  _353
REMARK  149  A    between atoms: _358  and  _360
REMARK  150  A    between atoms: _360  and  _361
REMARK  151  A    between atoms: _360  and  _363
REMARK  152  A    between atoms: _363  and  _364
REMARK  153  A    between atoms: _367  and  _369
REMARK  154  A    between atoms: _369  and  _370
REMARK  155  A    between atoms: _372  and  _374
REMARK  156  A    between atoms: _374  and  _375
REMARK  157  A    between atoms: _374  and  _377
REMARK  158  A    between atoms: _377  and  _378
REMARK  159  A    between atoms: _378  and  _379
REMARK  160  A    between atoms: _379  and  _380
REMARK  161  A    between atoms: _380  and  _381
REMARK  162  A    between atoms: _386  and  _387
REMARK  163  A    between atoms: _392  and  _394
REMARK  164  A    between atoms: _394  and  _395
REMARK  165  A    between atoms: _398  and  _400
REMARK  166  A    between atoms: _400  and  _401
REMARK  167  A    between atoms: _400  and  _403
REMARK  168  A    between atoms: _405  and  _407
REMARK  169  A    between atoms: _407  and  _408
REMARK  170  A    between atoms: _411  and  _413
REMARK  171  A    between atoms: _413  and  _414
REMARK  172  A    between atoms: _413  and  _416
REMARK  173  A    between atoms: _416  and  _417
REMARK  174  A    between atoms: _419  and  _421
REMARK  175  A    between atoms: _421  and  _422
REMARK  176  A    between atoms: _421  and  _424
REMARK  177  A    between atoms: _424  and  _425
REMARK  178  A    between atoms: _428  and  _430
REMARK  179  A    between atoms: _430  and  _431
REMARK  180  A    between atoms: _430  and  _433
REMARK  181  A    between atoms: _433  and  _434
REMARK  182  A    between atoms: _437  and  _439
REMARK  183  A    between atoms: _439  and  _440
REMARK  184  A    between atoms: _439  and  _442
REMARK  185  A    between atoms: _442  and  _443
REMARK  186  A    between atoms: _443  and  _444
REMARK  187  A    between atoms: _449  and  _451
REMARK  188  A    between atoms: _451  and  _452
REMARK  189  A    between atoms: _451  and  _454
REMARK  190  A    between atoms: _454  and  _455
REMARK  191  A    between atoms: _461  and  _463
REMARK  192  A    between atoms: _463  and  _464
REMARK  193  A    between atoms: _463  and  _466
REMARK  194  A    between atoms: _466  and  _467
REMARK  195  A    between atoms: _467  and  _468
REMARK  196  A    between atoms: _468  and  _469
REMARK  197  A    between atoms: _469  and  _470
REMARK  198  A    between atoms: _474  and  _476
REMARK  199  A    between atoms: _476  and  _477
REMARK  200  A    between atoms: _476  and  _479
REMARK  201  A    between atoms: _479  and  _480
REMARK  202  A    between atoms: _485  and  _487
REMARK  203  A    between atoms: _487  and  _488
REMARK  204  A    between atoms: _487  and  _490
REMARK  205  A    between atoms: _490  and  _491
REMARK  206  A    between atoms: _497  and  _499
REMARK  207  A    between atoms: _499  and  _500
REMARK  208  A    between atoms: _499  and  _502
REMARK  209  A    between atoms: _502  and  _503
REMARK  210  A    between atoms: _503  and  _504
REMARK  211  A    between atoms: _507  and  _509
REMARK  212  A    between atoms: _509  and  _510
REMARK  213  A    between atoms: _509  and  _512
REMARK  214  A    between atoms: _512  and  _513
REMARK  215  A    between atoms: _513  and  _514
REMARK  216  A    between atoms: _519  and  _521
REMARK  217  A    between atoms: _521  and  _522
REMARK  218  A    between atoms: _521  and  _524
REMARK  219  A    between atoms: _524  and  _525
REMARK  220  A    between atoms: _525  and  _526
REMARK  221  A    between atoms: _526  and  _527
REMARK  222  A    between atoms: _536  and  _538
REMARK  223  A    between atoms: _538  and  _539
REMARK                            x       y       z     vdW  Elec       q    Type
REMARK                         _______ _______ _______ _____ _____    ______ ____
ROOT
ATOM      1  O   HOH     1      23.605  -8.845  15.719  0.00  0.00    +0.000 OA
ENDROOT
TORSDOF 0
REMARK  Name = ../refined-set-2016/2jfh/2jfh_pocket.pdb
REMARK  223 active torsions:
REMARK  status: ('A' for Active; 'I' for Inactive)
REMARK    1  A    between atoms: _1  and  _3
REMARK    2  A    between atoms: _3  and  _4
REMARK    3  A    between atoms: _3  and  _6
REMARK    4  A    between atoms: _6  and  _7
REMARK    5  A    between atoms: _10  and  _12
REMARK    6  A    between atoms: _12  and  _13
REMARK    7  A    between atoms: _12  and  _15
REMARK    8  A    between atoms: _15  and  _16
REMARK    9  A    between atoms: _19  and  _21
REMARK   10  A    between atoms: _21  and  _22
REMARK   11  A    between atoms: _24  and  _26
REMARK   12  A    between atoms: _26  and  _27
REMARK   13  A    between atoms: _26  and  _29
REMARK   14  A    between atoms: _29  and  _30
REMARK   15  A    between atoms: _33  and  _35
REMARK   16  A    between atoms: _35  and  _36
REMARK   17  A    between atoms: _38  and  _40
REMARK   18  A    between atoms: _40  and  _41
REMARK   19  A    between atoms: _40  and  _43
REMARK   20  A    between atoms: _43  and  _44
REMARK   21  A    between atoms: _47  and  _49
REMARK   22  A    between atoms: _49  and  _50
REMARK   23  A    between atoms: _49  and  _52
REMARK   24  A    between atoms: _52  and  _53
REMARK   25  A    between atoms: _53  and  _54
REMARK   26  A    between atoms: _56  and  _58
REMARK   27  A    between atoms: _58  and  _59
REMARK   28  A    between atoms: _58  and  _61
REMARK   29  A    between atoms: _61  and  _62
REMARK   30  A    between atoms: _65  and  _67
REMARK   31  A    between atoms: _67  and  _68
REMARK   32  A    between atoms: _67  and  _70
REMARK   33  A    between atoms: _70  and  _71
REMARK   34  A    between atoms: _74  and  _76
REMARK   35  A    between atoms: _76  and  _77
REMARK   36  A    between atoms: _76  and  _79
REMARK   37  A    between atoms: _79  and  _80
REMARK   38  A    between atoms: _80  and  _81
REMARK   39  A    between atoms: _81  and  _82
REMARK   40  A    between atoms: _92  and  _93
REMARK   41  A    between atoms: _99  and  _100
REMARK   42  A    between atoms: _105  and  _107
REMARK   43  A    between atoms: _107  and  _108
REMARK   44  A    between atoms: _110  and  _112
REMARK   45  A    between atoms: _112  and  _113
REMARK   46  A    between atoms: _112  and  _115
REMARK   47  A    between atoms: _115  and  _116
REMARK   48  A    between atoms: _118  and  _120
REMARK   49  A    between atoms: _120  and  _121
REMARK   50  A    between atoms: _120  and  _123
REMARK   51  A    between atoms: _123  and  _124
REMARK   52  A    between atoms: _127  and  _129
REMARK   53  A    between atoms: _129  and  _130
REMARK   54  A    between atoms: _133  and  _135
REMARK   55  A    between atoms: _135  and  _136
REMARK   56  A    between atoms: _135  and  _138
REMARK   57  A    between atoms: _138  and  _139
REMARK   58  A    between atoms: _142  and  _143
REMARK   59  A    between atoms: _148  and  _150
REMARK   60  A    between atoms: _150  and  _151
REMARK   61  A    between atoms: _153  and  _155
REMARK   62  A    between atoms: _155  and  _156
REMARK   63  A    between atoms: _155  and  _158
REMARK   64  A    between atoms: _158  and  _159
REMARK   65  A    between atoms: _162  and  _164
REMARK   66  A    between atoms: _164  and  _165
REMARK   67  A    between atoms: _168  and  _170
REMARK   68  A    between atoms: _170  and  _171
REMARK   69  A    between atoms: _170  and  _173
REMARK   70  A    between atoms: _173  and  _174
REMARK   71  A    between atoms: _179  and  _181
REMARK   72  A    between atoms: _181  and  _182
REMARK   73  A    between atoms: _181  and  _184
REMARK   74  A    between atoms: _184  and  _185
REMARK   75  A    between atoms: _187  and  _189
REMARK   76  A    between atoms: _189  and  _190
REMARK   77  A    between atoms: _189  and  _192
REMARK   78  A    between atoms: _192  and  _193
REMARK   79  A    between atoms: _193  and  _194
REMARK   80  A    between atoms: _194  and  _195
REMARK   81  A    between atoms: _195  and  _196
REMARK   82  A    between atoms: _200  and  _202
REMARK   83  A    between atoms: _202  and  _203
REMARK   84  A    between atoms: _202  and  _205
REMARK   85  A    between atoms: _205  and  _206
REMARK   86  A    between atoms: _211  and  _213
REMARK   87  A    between atoms: _213  and  _214
REMARK   88  A    between atoms: _213  and  _216
REMARK   89  A    between atoms: _216  and  _217
REMARK   90  A    between atoms: _219  and  _221
REMARK   91  A    between atoms: _221  and  _222
REMARK   92  A    between atoms: _221  and  _224
REMARK   93  A    between atoms: _224  and  _225
REMARK   94  A    between atoms: _227  and  _229
REMARK   95  A    between atoms: _229  and  _230
REMARK   96  A    between atoms: _229  and  _232
REMARK   97  A    between atoms: _232  and  _233
REMARK   98  A    between atoms: _239  and  _241
REMARK   99  A    between atoms: _241  and  _242
REMARK  100  A    between atoms: _241  and  _244
REMARK  101  A    between atoms: _244  and  _245
REMARK  102  A    between atoms: _245  and  _246
REMARK  103  A    between atoms: _251  and  _253
REMARK  104  A    between atoms: _253  and  _254
REMARK  105  A    between atoms: _253  and  _256
REMARK  106  A    between atoms: _256  and  _257
REMARK  107  A    between atoms: _260  and  _262
REMARK  108  A    between atoms: _262  and  _263
REMARK  109  A    between atoms: _262  and  _265
REMARK  110  A    between atoms: _265  and  _266
REMARK  111  A    between atoms: _271  and  _273
REMARK  112  A    between atoms: _273  and  _274
REMARK  113  A    between atoms: _273  and  _276
REMARK  114  A    between atoms: _276  and  _277
REMARK  115  A    between atoms: _280  and  _282
REMARK  116  A    between atoms: _282  and  _283
REMARK  117  A    between atoms: _282  and  _285
REMARK  118  A    between atoms: _285  and  _286
REMARK  119  A    between atoms: _286  and  _287
REMARK  120  A    between atoms: _287  and  _288
REMARK  121  A    between atoms: _297  and  _299
REMARK  122  A    between atoms: _299  and  _300
REMARK  123  A    between atoms: _299  and  _306
REMARK  124  A    between atoms: _300  and  _301
REMARK  125  A    between atoms: _301  and  _302
REMARK  126  A    between atoms: _302  and  _303
REMARK  127  A    between atoms: _303  and  _304
REMARK  128  A    between atoms: _311  and  _313
REMARK  129  A    between atoms: _313  and  _314
REMARK  130  A    between atoms: _313  and  _316
REMARK  131  A    between atoms: _316  and  _317
REMARK  132  A    between atoms: _319  and  _321
REMARK  133  A    between atoms: _321  and  _322
REMARK  134  A    between atoms: _321  and  _324
REMARK  135  A    between atoms: _324  and  _325
REMARK  136  A    between atoms: _325  and  _326
REMARK  137  A    between atoms: _326  and  _327
REMARK  138  A    between atoms: _327  and  _328
REMARK  139  A    between atoms: _332  and  _334
REMARK  140  A    between atoms: _334  and  _335
REMARK  141  A    between atoms: _338  and  _340
REMARK  142  A    between atoms: _340  and  _341
REMARK  143  A    between atoms: _340  and  _343
REMARK  144  A    between atoms: _343  and  _344
REMARK  145  A    between atoms: _347  and  _349
REMARK  146  A    between atoms: _349  and  _350
REMARK  147  A    between atoms: _349  and  _352
REMARK  148  A    between atoms: _352  and  _353
REMARK  149  A    between atoms: _358  and  _360
REMARK  150  A    between atoms: _360  and  _361
REMARK  151  A    between atoms: _360  and  _363
REMARK  152  A    between atoms: _363  and  _364
REMARK  153  A    between atoms: _367  and  _369
REMARK  154  A    between atoms: _369  and  _370
REMARK  155  A    between atoms: _372  and  _374
REMARK  156  A    between atoms: _374  and  _375
REMARK  157  A    between atoms: _374  and  _377
REMARK  158  A    between atoms: _377  and  _378
REMARK  159  A    between atoms: _378  and  _379
REMARK  160  A    between atoms: _379  and  _380
REMARK  161  A    between atoms: _380  and  _381
REMARK  162  A    between atoms: _386  and  _387
REMARK  163  A    between atoms: _392  and  _394
REMARK  164  A    between atoms: _394  and  _395
REMARK  165  A    between atoms: _398  and  _400
REMARK  166  A    between atoms: _400  and  _401
REMARK  167  A    between atoms: _400  and  _403
REMARK  168  A    between atoms: _405  and  _407
REMARK  169  A    between atoms: _407  and  _408
REMARK  170  A    between atoms: _411  and  _413
REMARK  171  A    between atoms: _413  and  _414
REMARK  172  A    between atoms: _413  and  _416
REMARK  173  A    between atoms: _416  and  _417
REMARK  174  A    between atoms: _419  and  _421
REMARK  175  A    between atoms: _421  and  _422
REMARK  176  A    between atoms: _421  and  _424
REMARK  177  A    between atoms: _424  and  _425
REMARK  178  A    between atoms: _428  and  _430
REMARK  179  A    between atoms: _430  and  _431
REMARK  180  A    between atoms: _430  and  _433
REMARK  181  A    between atoms: _433  and  _434
REMARK  182  A    between atoms: _437  and  _439
REMARK  183  A    between atoms: _439  and  _440
REMARK  184  A    between atoms: _439  and  _442
REMARK  185  A    between atoms: _442  and  _443
REMARK  186  A    between atoms: _443  and  _444
REMARK  187  A    between atoms: _449  and  _451
REMARK  188  A    between atoms: _451  and  _452
REMARK  189  A    between atoms: _451  and  _454
REMARK  190  A    between atoms: _454  and  _455
REMARK  191  A    between atoms: _461  and  _463
REMARK  192  A    between atoms: _463  and  _464
REMARK  193  A    between atoms: _463  and  _466
REMARK  194  A    between atoms: _466  and  _467
REMARK  195  A    between atoms: _467  and  _468
REMARK  196  A    between atoms: _468  and  _469
REMARK  197  A    between atoms: _469  and  _470
REMARK  198  A    between atoms: _474  and  _476
REMARK  199  A    between atoms: _476  and  _477
REMARK  200  A    between atoms: _476  and  _479
REMARK  201  A    between atoms: _479  and  _480
REMARK  202  A    between atoms: _485  and  _487
REMARK  203  A    between atoms: _487  and  _488
REMARK  204  A    between atoms: _487  and  _490
REMARK  205  A    between atoms: _490  and  _491
REMARK  206  A    between atoms: _497  and  _499
REMARK  207  A    between atoms: _499  and  _500
REMARK  208  A    between atoms: _499  and  _502
REMARK  209  A    between atoms: _502  and  _503
REMARK  210  A    between atoms: _503  and  _504
REMARK  211  A    between atoms: _507  and  _509
REMARK  212  A    between atoms: _509  and  _510
REMARK  213  A    between atoms: _509  and  _512
REMARK  214  A    between atoms: _512  and  _513
REMARK  215  A    between atoms: _513  and  _514
REMARK  216  A    between atoms: _519  and  _521
REMARK  217  A    between atoms: _521  and  _522
REMARK  218  A    between atoms: _521  and  _524
REMARK  219  A    between atoms: _524  and  _525
REMARK  220  A    between atoms: _525  and  _526
REMARK  221  A    between atoms: _526  and  _527
REMARK  222  A    between atoms: _536  and  _538
REMARK  223  A    between atoms: _538  and  _539
REMARK                            x       y       z     vdW  Elec       q    Type
REMARK                         _______ _______ _______ _____ _____    ______ ____
ROOT
ATOM      1  O   HOH     1      31.410  -8.517  17.985  0.00  0.00    +0.000 OA
ENDROOT
TORSDOF 0
REMARK  Name = ../refined-set-2016/2jfh/2jfh_pocket.pdb
REMARK  223 active torsions:
REMARK  status: ('A' for Active; 'I' for Inactive)
REMARK    1  A    between atoms: _1  and  _3
REMARK    2  A    between atoms: _3  and  _4
REMARK    3  A    between atoms: _3  and  _6
REMARK    4  A    between atoms: _6  and  _7
REMARK    5  A    between atoms: _10  and  _12
REMARK    6  A    between atoms: _12  and  _13
REMARK    7  A    between atoms: _12  and  _15
REMARK    8  A    between atoms: _15  and  _16
REMARK    9  A    between atoms: _19  and  _21
REMARK   10  A    between atoms: _21  and  _22
REMARK   11  A    between atoms: _24  and  _26
REMARK   12  A    between atoms: _26  and  _27
REMARK   13  A    between atoms: _26  and  _29
REMARK   14  A    between atoms: _29  and  _30
REMARK   15  A    between atoms: _33  and  _35
REMARK   16  A    between atoms: _35  and  _36
REMARK   17  A    between atoms: _38  and  _40
REMARK   18  A    between atoms: _40  and  _41
REMARK   19  A    between atoms: _40  and  _43
REMARK   20  A    between atoms: _43  and  _44
REMARK   21  A    between atoms: _47  and  _49
REMARK   22  A    between atoms: _49  and  _50
REMARK   23  A    between atoms: _49  and  _52
REMARK   24  A    between atoms: _52  and  _53
REMARK   25  A    between atoms: _53  and  _54
REMARK   26  A    between atoms: _56  and  _58
REMARK   27  A    between atoms: _58  and  _59
REMARK   28  A    between atoms: _58  and  _61
REMARK   29  A    between atoms: _61  and  _62
REMARK   30  A    between atoms: _65  and  _67
REMARK   31  A    between atoms: _67  and  _68
REMARK   32  A    between atoms: _67  and  _70
REMARK   33  A    between atoms: _70  and  _71
REMARK   34  A    between atoms: _74  and  _76
REMARK   35  A    between atoms: _76  and  _77
REMARK   36  A    between atoms: _76  and  _79
REMARK   37  A    between atoms: _79  and  _80
REMARK   38  A    between atoms: _80  and  _81
REMARK   39  A    between atoms: _81  and  _82
REMARK   40  A    between atoms: _92  and  _93
REMARK   41  A    between atoms: _99  and  _100
REMARK   42  A    between atoms: _105  and  _107
REMARK   43  A    between atoms: _107  and  _108
REMARK   44  A    between atoms: _110  and  _112
REMARK   45  A    between atoms: _112  and  _113
REMARK   46  A    between atoms: _112  and  _115
REMARK   47  A    between atoms: _115  and  _116
REMARK   48  A    between atoms: _118  and  _120
REMARK   49  A    between atoms: _120  and  _121
REMARK   50  A    between atoms: _120  and  _123
REMARK   51  A    between atoms: _123  and  _124
REMARK   52  A    between atoms: _127  and  _129
REMARK   53  A    between atoms: _129  and  _130
REMARK   54  A    between atoms: _133  and  _135
REMARK   55  A    between atoms: _135  and  _136
REMARK   56  A    between atoms: _135  and  _138
REMARK   57  A    between atoms: _138  and  _139
REMARK   58  A    between atoms: _142  and  _143
REMARK   59  A    between atoms: _148  and  _150
REMARK   60  A    between atoms: _150  and  _151
REMARK   61  A    between atoms: _153  and  _155
REMARK   62  A    between atoms: _155  and  _156
REMARK   63  A    between atoms: _155  and  _158
REMARK   64  A    between atoms: _158  and  _159
REMARK   65  A    between atoms: _162  and  _164
REMARK   66  A    between atoms: _164  and  _165
REMARK   67  A    between atoms: _168  and  _170
REMARK   68  A    between atoms: _170  and  _171
REMARK   69  A    between atoms: _170  and  _173
REMARK   70  A    between atoms: _173  and  _174
REMARK   71  A    between atoms: _179  and  _181
REMARK   72  A    between atoms: _181  and  _182
REMARK   73  A    between atoms: _181  and  _184
REMARK   74  A    between atoms: _184  and  _185
REMARK   75  A    between atoms: _187  and  _189
REMARK   76  A    between atoms: _189  and  _190
REMARK   77  A    between atoms: _189  and  _192
REMARK   78  A    between atoms: _192  and  _193
REMARK   79  A    between atoms: _193  and  _194
REMARK   80  A    between atoms: _194  and  _195
REMARK   81  A    between atoms: _195  and  _196
REMARK   82  A    between atoms: _200  and  _202
REMARK   83  A    between atoms: _202  and  _203
REMARK   84  A    between atoms: _202  and  _205
REMARK   85  A    between atoms: _205  and  _206
REMARK   86  A    between atoms: _211  and  _213
REMARK   87  A    between atoms: _213  and  _214
REMARK   88  A    between atoms: _213  and  _216
REMARK   89  A    between atoms: _216  and  _217
REMARK   90  A    between atoms: _219  and  _221
REMARK   91  A    between atoms: _221  and  _222
REMARK   92  A    between atoms: _221  and  _224
REMARK   93  A    between atoms: _224  and  _225
REMARK   94  A    between atoms: _227  and  _229
REMARK   95  A    between atoms: _229  and  _230
REMARK   96  A    between atoms: _229  and  _232
REMARK   97  A    between atoms: _232  and  _233
REMARK   98  A    between atoms: _239  and  _241
REMARK   99  A    between atoms: _241  and  _242
REMARK  100  A    between atoms: _241  and  _244
REMARK  101  A    between atoms: _244  and  _245
REMARK  102  A    between atoms: _245  and  _246
REMARK  103  A    between atoms: _251  and  _253
REMARK  104  A    between atoms: _253  and  _254
REMARK  105  A    between atoms: _253  and  _256
REMARK  106  A    between atoms: _256  and  _257
REMARK  107  A    between atoms: _260  and  _262
REMARK  108  A    between atoms: _262  and  _263
REMARK  109  A    between atoms: _262  and  _265
REMARK  110  A    between atoms: _265  and  _266
REMARK  111  A    between atoms: _271  and  _273
REMARK  112  A    between atoms: _273  and  _274
REMARK  113  A    between atoms: _273  and  _276
REMARK  114  A    between atoms: _276  and  _277
REMARK  115  A    between atoms: _280  and  _282
REMARK  116  A    between atoms: _282  and  _283
REMARK  117  A    between atoms: _282  and  _285
REMARK  118  A    between atoms: _285  and  _286
REMARK  119  A    between atoms: _286  and  _287
REMARK  120  A    between atoms: _287  and  _288
REMARK  121  A    between atoms: _297  and  _299
REMARK  122  A    between atoms: _299  and  _300
REMARK  123  A    between atoms: _299  and  _306
REMARK  124  A    between atoms: _300  and  _301
REMARK  125  A    between atoms: _301  and  _302
REMARK  126  A    between atoms: _302  and  _303
REMARK  127  A    between atoms: _303  and  _304
REMARK  128  A    between atoms: _311  and  _313
REMARK  129  A    between atoms: _313  and  _314
REMARK  130  A    between atoms: _313  and  _316
REMARK  131  A    between atoms: _316  and  _317
REMARK  132  A    between atoms: _319  and  _321
REMARK  133  A    between atoms: _321  and  _322
REMARK  134  A    between atoms: _321  and  _324
REMARK  135  A    between atoms: _324  and  _325
REMARK  136  A    between atoms: _325  and  _326
REMARK  137  A    between atoms: _326  and  _327
REMARK  138  A    between atoms: _327  and  _328
REMARK  139  A    between atoms: _332  and  _334
REMARK  140  A    between atoms: _334  and  _335
REMARK  141  A    between atoms: _338  and  _340
REMARK  142  A    between atoms: _340  and  _341
REMARK  143  A    between atoms: _340  and  _343
REMARK  144  A    between atoms: _343  and  _344
REMARK  145  A    between atoms: _347  and  _349
REMARK  146  A    between atoms: _349  and  _350
REMARK  147  A    between atoms: _349  and  _352
REMARK  148  A    between atoms: _352  and  _353
REMARK  149  A    between atoms: _358  and  _360
REMARK  150  A    between atoms: _360  and  _361
REMARK  151  A    between atoms: _360  and  _363
REMARK  152  A    between atoms: _363  and  _364
REMARK  153  A    between atoms: _367  and  _369
REMARK  154  A    between atoms: _369  and  _370
REMARK  155  A    between atoms: _372  and  _374
REMARK  156  A    between atoms: _374  and  _375
REMARK  157  A    between atoms: _374  and  _377
REMARK  158  A    between atoms: _377  and  _378
REMARK  159  A    between atoms: _378  and  _379
REMARK  160  A    between atoms: _379  and  _380
REMARK  161  A    between atoms: _380  and  _381
REMARK  162  A    between atoms: _386  and  _387
REMARK  163  A    between atoms: _392  and  _394
REMARK  164  A    between atoms: _394  and  _395
REMARK  165  A    between atoms: _398  and  _400
REMARK  166  A    between atoms: _400  and  _401
REMARK  167  A    between atoms: _400  and  _403
REMARK  168  A    between atoms: _405  and  _407
REMARK  169  A    between atoms: _407  and  _408
REMARK  170  A    between atoms: _411  and  _413
REMARK  171  A    between atoms: _413  and  _414
REMARK  172  A    between atoms: _413  and  _416
REMARK  173  A    between atoms: _416  and  _417
REMARK  174  A    between atoms: _419  and  _421
REMARK  175  A    between atoms: _421  and  _422
REMARK  176  A    between atoms: _421  and  _424
REMARK  177  A    between atoms: _424  and  _425
REMARK  178  A    between atoms: _428  and  _430
REMARK  179  A    between atoms: _430  and  _431
REMARK  180  A    between atoms: _430  and  _433
REMARK  181  A    between atoms: _433  and  _434
REMARK  182  A    between atoms: _437  and  _439
REMARK  183  A    between atoms: _439  and  _440
REMARK  184  A    between atoms: _439  and  _442
REMARK  185  A    between atoms: _442  and  _443
REMARK  186  A    between atoms: _443  and  _444
REMARK  187  A    between atoms: _449  and  _451
REMARK  188  A    between atoms: _451  and  _452
REMARK  189  A    between atoms: _451  and  _454
REMARK  190  A    between atoms: _454  and  _455
REMARK  191  A    between atoms: _461  and  _463
REMARK  192  A    between atoms: _463  and  _464
REMARK  193  A    between atoms: _463  and  _466
REMARK  194  A    between atoms: _466  and  _467
REMARK  195  A    between atoms: _467  and  _468
REMARK  196  A    between atoms: _468  and  _469
REMARK  197  A    between atoms: _469  and  _470
REMARK  198  A    between atoms: _474  and  _476
REMARK  199  A    between atoms: _476  and  _477
REMARK  200  A    between atoms: _476  and  _479
REMARK  201  A    between atoms: _479  and  _480
REMARK  202  A    between atoms: _485  and  _487
REMARK  203  A    between atoms: _487  and  _488
REMARK  204  A    between atoms: _487  and  _490
REMARK  205  A    between atoms: _490  and  _491
REMARK  206  A    between atoms: _497  and  _499
REMARK  207  A    between atoms: _499  and  _500
REMARK  208  A    between atoms: _499  and  _502
REMARK  209  A    between atoms: _502  and  _503
REMARK  210  A    between atoms: _503  and  _504
REMARK  211  A    between atoms: _507  and  _509
REMARK  212  A    between atoms: _509  and  _510
REMARK  213  A    between atoms: _509  and  _512
REMARK  214  A    between atoms: _512  and  _513
REMARK  215  A    between atoms: _513  and  _514
REMARK  216  A    between atoms: _519  and  _521
REMARK  217  A    between atoms: _521  and  _522
REMARK  218  A    between atoms: _521  and  _524
REMARK  219  A    between atoms: _524  and  _525
REMARK  220  A    between atoms: _525  and  _526
REMARK  221  A    between atoms: _526  and  _527
REMARK  222  A    between atoms: _536  and  _538
REMARK  223  A    between atoms: _538  and  _539
REMARK                            x       y       z     vdW  Elec       q    Type
REMARK                         _______ _______ _______ _____ _____    ______ ____
ROOT
ATOM      1  O   HOH     1      22.940  -1.359  29.229  0.00  0.00    +0.000 OA
ENDROOT
TORSDOF 0
REMARK  Name = ../refined-set-2016/2jfh/2jfh_pocket.pdb
REMARK  223 active torsions:
REMARK  status: ('A' for Active; 'I' for Inactive)
REMARK    1  A    between atoms: _1  and  _3
REMARK    2  A    between atoms: _3  and  _4
REMARK    3  A    between atoms: _3  and  _6
REMARK    4  A    between atoms: _6  and  _7
REMARK    5  A    between atoms: _10  and  _12
REMARK    6  A    between atoms: _12  and  _13
REMARK    7  A    between atoms: _12  and  _15
REMARK    8  A    between atoms: _15  and  _16
REMARK    9  A    between atoms: _19  and  _21
REMARK   10  A    between atoms: _21  and  _22
REMARK   11  A    between atoms: _24  and  _26
REMARK   12  A    between atoms: _26  and  _27
REMARK   13  A    between atoms: _26  and  _29
REMARK   14  A    between atoms: _29  and  _30
REMARK   15  A    between atoms: _33  and  _35
REMARK   16  A    between atoms: _35  and  _36
REMARK   17  A    between atoms: _38  and  _40
REMARK   18  A    between atoms: _40  and  _41
REMARK   19  A    between atoms: _40  and  _43
REMARK   20  A    between atoms: _43  and  _44
REMARK   21  A    between atoms: _47  and  _49
REMARK   22  A    between atoms: _49  and  _50
REMARK   23  A    between atoms: _49  and  _52
REMARK   24  A    between atoms: _52  and  _53
REMARK   25  A    between atoms: _53  and  _54
REMARK   26  A    between atoms: _56  and  _58
REMARK   27  A    between atoms: _58  and  _59
REMARK   28  A    between atoms: _58  and  _61
REMARK   29  A    between atoms: _61  and  _62
REMARK   30  A    between atoms: _65  and  _67
REMARK   31  A    between atoms: _67  and  _68
REMARK   32  A    between atoms: _67  and  _70
REMARK   33  A    between atoms: _70  and  _71
REMARK   34  A    between atoms: _74  and  _76
REMARK   35  A    between atoms: _76  and  _77
REMARK   36  A    between atoms: _76  and  _79
REMARK   37  A    between atoms: _79  and  _80
REMARK   38  A    between atoms: _80  and  _81
REMARK   39  A    between atoms: _81  and  _82
REMARK   40  A    between atoms: _92  and  _93
REMARK   41  A    between atoms: _99  and  _100
REMARK   42  A    between atoms: _105  and  _107
REMARK   43  A    between atoms: _107  and  _108
REMARK   44  A    between atoms: _110  and  _112
REMARK   45  A    between atoms: _112  and  _113
REMARK   46  A    between atoms: _112  and  _115
REMARK   47  A    between atoms: _115  and  _116
REMARK   48  A    between atoms: _118  and  _120
REMARK   49  A    between atoms: _120  and  _121
REMARK   50  A    between atoms: _120  and  _123
REMARK   51  A    between atoms: _123  and  _124
REMARK   52  A    between atoms: _127  and  _129
REMARK   53  A    between atoms: _129  and  _130
REMARK   54  A    between atoms: _133  and  _135
REMARK   55  A    between atoms: _135  and  _136
REMARK   56  A    between atoms: _135  and  _138
REMARK   57  A    between atoms: _138  and  _139
REMARK   58  A    between atoms: _142  and  _143
REMARK   59  A    between atoms: _148  and  _150
REMARK   60  A    between atoms: _150  and  _151
REMARK   61  A    between atoms: _153  and  _155
REMARK   62  A    between atoms: _155  and  _156
REMARK   63  A    between atoms: _155  and  _158
REMARK   64  A    between atoms: _158  and  _159
REMARK   65  A    between atoms: _162  and  _164
REMARK   66  A    between atoms: _164  and  _165
REMARK   67  A    between atoms: _168  and  _170
REMARK   68  A    between atoms: _170  and  _171
REMARK   69  A    between atoms: _170  and  _173
REMARK   70  A    between atoms: _173  and  _174
REMARK   71  A    between atoms: _179  and  _181
REMARK   72  A    between atoms: _181  and  _182
REMARK   73  A    between atoms: _181  and  _184
REMARK   74  A    between atoms: _184  and  _185
REMARK   75  A    between atoms: _187  and  _189
REMARK   76  A    between atoms: _189  and  _190
REMARK   77  A    between atoms: _189  and  _192
REMARK   78  A    between atoms: _192  and  _193
REMARK   79  A    between atoms: _193  and  _194
REMARK   80  A    between atoms: _194  and  _195
REMARK   81  A    between atoms: _195  and  _196
REMARK   82  A    between atoms: _200  and  _202
REMARK   83  A    between atoms: _202  and  _203
REMARK   84  A    between atoms: _202  and  _205
REMARK   85  A    between atoms: _205  and  _206
REMARK   86  A    between atoms: _211  and  _213
REMARK   87  A    between atoms: _213  and  _214
REMARK   88  A    between atoms: _213  and  _216
REMARK   89  A    between atoms: _216  and  _217
REMARK   90  A    between atoms: _219  and  _221
REMARK   91  A    between atoms: _221  and  _222
REMARK   92  A    between atoms: _221  and  _224
REMARK   93  A    between atoms: _224  and  _225
REMARK   94  A    between atoms: _227  and  _229
REMARK   95  A    between atoms: _229  and  _230
REMARK   96  A    between atoms: _229  and  _232
REMARK   97  A    between atoms: _232  and  _233
REMARK   98  A    between atoms: _239  and  _241
REMARK   99  A    between atoms: _241  and  _242
REMARK  100  A    between atoms: _241  and  _244
REMARK  101  A    between atoms: _244  and  _245
REMARK  102  A    between atoms: _245  and  _246
REMARK  103  A    between atoms: _251  and  _253
REMARK  104  A    between atoms: _253  and  _254
REMARK  105  A    between atoms: _253  and  _256
REMARK  106  A    between atoms: _256  and  _257
REMARK  107  A    between atoms: _260  and  _262
REMARK  108  A    between atoms: _262  and  _263
REMARK  109  A    between atoms: _262  and  _265
REMARK  110  A    between atoms: _265  and  _266
REMARK  111  A    between atoms: _271  and  _273
REMARK  112  A    between atoms: _273  and  _274
REMARK  113  A    between atoms: _273  and  _276
REMARK  114  A    between atoms: _276  and  _277
REMARK  115  A    between atoms: _280  and  _282
REMARK  116  A    between atoms: _282  and  _283
REMARK  117  A    between atoms: _282  and  _285
REMARK  118  A    between atoms: _285  and  _286
REMARK  119  A    between atoms: _286  and  _287
REMARK  120  A    between atoms: _287  and  _288
REMARK  121  A    between atoms: _297  and  _299
REMARK  122  A    between atoms: _299  and  _300
REMARK  123  A    between atoms: _299  and  _306
REMARK  124  A    between atoms: _300  and  _301
REMARK  125  A    between atoms: _301  and  _302
REMARK  126  A    between atoms: _302  and  _303
REMARK  127  A    between atoms: _303  and  _304
REMARK  128  A    between atoms: _311  and  _313
REMARK  129  A    between atoms: _313  and  _314
REMARK  130  A    between atoms: _313  and  _316
REMARK  131  A    between atoms: _316  and  _317
REMARK  132  A    between atoms: _319  and  _321
REMARK  133  A    between atoms: _321  and  _322
REMARK  134  A    between atoms: _321  and  _324
REMARK  135  A    between atoms: _324  and  _325
REMARK  136  A    between atoms: _325  and  _326
REMARK  137  A    between atoms: _326  and  _327
REMARK  138  A    between atoms: _327  and  _328
REMARK  139  A    between atoms: _332  and  _334
REMARK  140  A    between atoms: _334  and  _335
REMARK  141  A    between atoms: _338  and  _340
REMARK  142  A    between atoms: _340  and  _341
REMARK  143  A    between atoms: _340  and  _343
REMARK  144  A    between atoms: _343  and  _344
REMARK  145  A    between atoms: _347  and  _349
REMARK  146  A    between atoms: _349  and  _350
REMARK  147  A    between atoms: _349  and  _352
REMARK  148  A    between atoms: _352  and  _353
REMARK  149  A    between atoms: _358  and  _360
REMARK  150  A    between atoms: _360  and  _361
REMARK  151  A    between atoms: _360  and  _363
REMARK  152  A    between atoms: _363  and  _364
REMARK  153  A    between atoms: _367  and  _369
REMARK  154  A    between atoms: _369  and  _370
REMARK  155  A    between atoms: _372  and  _374
REMARK  156  A    between atoms: _374  and  _375
REMARK  157  A    between atoms: _374  and  _377
REMARK  158  A    between atoms: _377  and  _378
REMARK  159  A    between atoms: _378  and  _379
REMARK  160  A    between atoms: _379  and  _380
REMARK  161  A    between atoms: _380  and  _381
REMARK  162  A    between atoms: _386  and  _387
REMARK  163  A    between atoms: _392  and  _394
REMARK  164  A    between atoms: _394  and  _395
REMARK  165  A    between atoms: _398  and  _400
REMARK  166  A    between atoms: _400  and  _401
REMARK  167  A    between atoms: _400  and  _403
REMARK  168  A    between atoms: _405  and  _407
REMARK  169  A    between atoms: _407  and  _408
REMARK  170  A    between atoms: _411  and  _413
REMARK  171  A    between atoms: _413  and  _414
REMARK  172  A    between atoms: _413  and  _416
REMARK  173  A    between atoms: _416  and  _417
REMARK  174  A    between atoms: _419  and  _421
REMARK  175  A    between atoms: _421  and  _422
REMARK  176  A    between atoms: _421  and  _424
REMARK  177  A    between atoms: _424  and  _425
REMARK  178  A    between atoms: _428  and  _430
REMARK  179  A    between atoms: _430  and  _431
REMARK  180  A    between atoms: _430  and  _433
REMARK  181  A    between atoms: _433  and  _434
REMARK  182  A    between atoms: _437  and  _439
REMARK  183  A    between atoms: _439  and  _440
REMARK  184  A    between atoms: _439  and  _442
REMARK  185  A    between atoms: _442  and  _443
REMARK  186  A    between atoms: _443  and  _444
REMARK  187  A    between atoms: _449  and  _451
REMARK  188  A    between atoms: _451  and  _452
REMARK  189  A    between atoms: _451  and  _454
REMARK  190  A    between atoms: _454  and  _455
REMARK  191  A    between atoms: _461  and  _463
REMARK  192  A    between atoms: _463  and  _464
REMARK  193  A    between atoms: _463  and  _466
REMARK  194  A    between atoms: _466  and  _467
REMARK  195  A    between atoms: _467  and  _468
REMARK  196  A    between atoms: _468  and  _469
REMARK  197  A    between atoms: _469  and  _470
REMARK  198  A    between atoms: _474  and  _476
REMARK  199  A    between atoms: _476  and  _477
REMARK  200  A    between atoms: _476  and  _479
REMARK  201  A    between atoms: _479  and  _480
REMARK  202  A    between atoms: _485  and  _487
REMARK  203  A    between atoms: _487  and  _488
REMARK  204  A    between atoms: _487  and  _490
REMARK  205  A    between atoms: _490  and  _491
REMARK  206  A    between atoms: _497  and  _499
REMARK  207  A    between atoms: _499  and  _500
REMARK  208  A    between atoms: _499  and  _502
REMARK  209  A    between atoms: _502  and  _503
REMARK  210  A    between atoms: _503  and  _504
REMARK  211  A    between atoms: _507  and  _509
REMARK  212  A    between atoms: _509  and  _510
REMARK  213  A    between atoms: _509  and  _512
REMARK  214  A    between atoms: _512  and  _513
REMARK  215  A    between atoms: _513  and  _514
REMARK  216  A    between atoms: _519  and  _521
REMARK  217  A    between atoms: _521  and  _522
REMARK  218  A    between atoms: _521  and  _524
REMARK  219  A    between atoms: _524  and  _525
REMARK  220  A    between atoms: _525  and  _526
REMARK  221  A    between atoms: _526  and  _527
REMARK  222  A    between atoms: _536  and  _538
REMARK  223  A    between atoms: _538  and  _539
REMARK                            x       y       z     vdW  Elec       q    Type
REMARK                         _______ _______ _______ _____ _____    ______ ____
ROOT
ATOM      1  O   HOH     1      28.794 -10.148  25.337  0.00  0.00    +0.000 OA
ENDROOT
TORSDOF 0
REMARK  Name = ../refined-set-2016/2jfh/2jfh_pocket.pdb
REMARK  223 active torsions:
REMARK  status: ('A' for Active; 'I' for Inactive)
REMARK    1  A    between atoms: _1  and  _3
REMARK    2  A    between atoms: _3  and  _4
REMARK    3  A    between atoms: _3  and  _6
REMARK    4  A    between atoms: _6  and  _7
REMARK    5  A    between atoms: _10  and  _12
REMARK    6  A    between atoms: _12  and  _13
REMARK    7  A    between atoms: _12  and  _15
REMARK    8  A    between atoms: _15  and  _16
REMARK    9  A    between atoms: _19  and  _21
REMARK   10  A    between atoms: _21  and  _22
REMARK   11  A    between atoms: _24  and  _26
REMARK   12  A    between atoms: _26  and  _27
REMARK   13  A    between atoms: _26  and  _29
REMARK   14  A    between atoms: _29  and  _30
REMARK   15  A    between atoms: _33  and  _35
REMARK   16  A    between atoms: _35  and  _36
REMARK   17  A    between atoms: _38  and  _40
REMARK   18  A    between atoms: _40  and  _41
REMARK   19  A    between atoms: _40  and  _43
REMARK   20  A    between atoms: _43  and  _44
REMARK   21  A    between atoms: _47  and  _49
REMARK   22  A    between atoms: _49  and  _50
REMARK   23  A    between atoms: _49  and  _52
REMARK   24  A    between atoms: _52  and  _53
REMARK   25  A    between atoms: _53  and  _54
REMARK   26  A    between atoms: _56  and  _58
REMARK   27  A    between atoms: _58  and  _59
REMARK   28  A    between atoms: _58  and  _61
REMARK   29  A    between atoms: _61  and  _62
REMARK   30  A    between atoms: _65  and  _67
REMARK   31  A    between atoms: _67  and  _68
REMARK   32  A    between atoms: _67  and  _70
REMARK   33  A    between atoms: _70  and  _71
REMARK   34  A    between atoms: _74  and  _76
REMARK   35  A    between atoms: _76  and  _77
REMARK   36  A    between atoms: _76  and  _79
REMARK   37  A    between atoms: _79  and  _80
REMARK   38  A    between atoms: _80  and  _81
REMARK   39  A    between atoms: _81  and  _82
REMARK   40  A    between atoms: _92  and  _93
REMARK   41  A    between atoms: _99  and  _100
REMARK   42  A    between atoms: _105  and  _107
REMARK   43  A    between atoms: _107  and  _108
REMARK   44  A    between atoms: _110  and  _112
REMARK   45  A    between atoms: _112  and  _113
REMARK   46  A    between atoms: _112  and  _115
REMARK   47  A    between atoms: _115  and  _116
REMARK   48  A    between atoms: _118  and  _120
REMARK   49  A    between atoms: _120  and  _121
REMARK   50  A    between atoms: _120  and  _123
REMARK   51  A    between atoms: _123  and  _124
REMARK   52  A    between atoms: _127  and  _129
REMARK   53  A    between atoms: _129  and  _130
REMARK   54  A    between atoms: _133  and  _135
REMARK   55  A    between atoms: _135  and  _136
REMARK   56  A    between atoms: _135  and  _138
REMARK   57  A    between atoms: _138  and  _139
REMARK   58  A    between atoms: _142  and  _143
REMARK   59  A    between atoms: _148  and  _150
REMARK   60  A    between atoms: _150  and  _151
REMARK   61  A    between atoms: _153  and  _155
REMARK   62  A    between atoms: _155  and  _156
REMARK   63  A    between atoms: _155  and  _158
REMARK   64  A    between atoms: _158  and  _159
REMARK   65  A    between atoms: _162  and  _164
REMARK   66  A    between atoms: _164  and  _165
REMARK   67  A    between atoms: _168  and  _170
REMARK   68  A    between atoms: _170  and  _171
REMARK   69  A    between atoms: _170  and  _173
REMARK   70  A    between atoms: _173  and  _174
REMARK   71  A    between atoms: _179  and  _181
REMARK   72  A    between atoms: _181  and  _182
REMARK   73  A    between atoms: _181  and  _184
REMARK   74  A    between atoms: _184  and  _185
REMARK   75  A    between atoms: _187  and  _189
REMARK   76  A    between atoms: _189  and  _190
REMARK   77  A    between atoms: _189  and  _192
REMARK   78  A    between atoms: _192  and  _193
REMARK   79  A    between atoms: _193  and  _194
REMARK   80  A    between atoms: _194  and  _195
REMARK   81  A    between atoms: _195  and  _196
REMARK   82  A    between atoms: _200  and  _202
REMARK   83  A    between atoms: _202  and  _203
REMARK   84  A    between atoms: _202  and  _205
REMARK   85  A    between atoms: _205  and  _206
REMARK   86  A    between atoms: _211  and  _213
REMARK   87  A    between atoms: _213  and  _214
REMARK   88  A    between atoms: _213  and  _216
REMARK   89  A    between atoms: _216  and  _217
REMARK   90  A    between atoms: _219  and  _221
REMARK   91  A    between atoms: _221  and  _222
REMARK   92  A    between atoms: _221  and  _224
REMARK   93  A    between atoms: _224  and  _225
REMARK   94  A    between atoms: _227  and  _229
REMARK   95  A    between atoms: _229  and  _230
REMARK   96  A    between atoms: _229  and  _232
REMARK   97  A    between atoms: _232  and  _233
REMARK   98  A    between atoms: _239  and  _241
REMARK   99  A    between atoms: _241  and  _242
REMARK  100  A    between atoms: _241  and  _244
REMARK  101  A    between atoms: _244  and  _245
REMARK  102  A    between atoms: _245  and  _246
REMARK  103  A    between atoms: _251  and  _253
REMARK  104  A    between atoms: _253  and  _254
REMARK  105  A    between atoms: _253  and  _256
REMARK  106  A    between atoms: _256  and  _257
REMARK  107  A    between atoms: _260  and  _262
REMARK  108  A    between atoms: _262  and  _263
REMARK  109  A    between atoms: _262  and  _265
REMARK  110  A    between atoms: _265  and  _266
REMARK  111  A    between atoms: _271  and  _273
REMARK  112  A    between atoms: _273  and  _274
REMARK  113  A    between atoms: _273  and  _276
REMARK  114  A    between atoms: _276  and  _277
REMARK  115  A    between atoms: _280  and  _282
REMARK  116  A    between atoms: _282  and  _283
REMARK  117  A    between atoms: _282  and  _285
REMARK  118  A    between atoms: _285  and  _286
REMARK  119  A    between atoms: _286  and  _287
REMARK  120  A    between atoms: _287  and  _288
REMARK  121  A    between atoms: _297  and  _299
REMARK  122  A    between atoms: _299  and  _300
REMARK  123  A    between atoms: _299  and  _306
REMARK  124  A    between atoms: _300  and  _301
REMARK  125  A    between atoms: _301  and  _302
REMARK  126  A    between atoms: _302  and  _303
REMARK  127  A    between atoms: _303  and  _304
REMARK  128  A    between atoms: _311  and  _313
REMARK  129  A    between atoms: _313  and  _314
REMARK  130  A    between atoms: _313  and  _316
REMARK  131  A    between atoms: _316  and  _317
REMARK  132  A    between atoms: _319  and  _321
REMARK  133  A    between atoms: _321  and  _322
REMARK  134  A    between atoms: _321  and  _324
REMARK  135  A    between atoms: _324  and  _325
REMARK  136  A    between atoms: _325  and  _326
REMARK  137  A    between atoms: _326  and  _327
REMARK  138  A    between atoms: _327  and  _328
REMARK  139  A    between atoms: _332  and  _334
REMARK  140  A    between atoms: _334  and  _335
REMARK  141  A    between atoms: _338  and  _340
REMARK  142  A    between atoms: _340  and  _341
REMARK  143  A    between atoms: _340  and  _343
REMARK  144  A    between atoms: _343  and  _344
REMARK  145  A    between atoms: _347  and  _349
REMARK  146  A    between atoms: _349  and  _350
REMARK  147  A    between atoms: _349  and  _352
REMARK  148  A    between atoms: _352  and  _353
REMARK  149  A    between atoms: _358  and  _360
REMARK  150  A    between atoms: _360  and  _361
REMARK  151  A    between atoms: _360  and  _363
REMARK  152  A    between atoms: _363  and  _364
REMARK  153  A    between atoms: _367  and  _369
REMARK  154  A    between atoms: _369  and  _370
REMARK  155  A    between atoms: _372  and  _374
REMARK  156  A    between atoms: _374  and  _375
REMARK  157  A    between atoms: _374  and  _377
REMARK  158  A    between atoms: _377  and  _378
REMARK  159  A    between atoms: _378  and  _379
REMARK  160  A    between atoms: _379  and  _380
REMARK  161  A    between atoms: _380  and  _381
REMARK  162  A    between atoms: _386  and  _387
REMARK  163  A    between atoms: _392  and  _394
REMARK  164  A    between atoms: _394  and  _395
REMARK  165  A    between atoms: _398  and  _400
REMARK  166  A    between atoms: _400  and  _401
REMARK  167  A    between atoms: _400  and  _403
REMARK  168  A    between atoms: _405  and  _407
REMARK  169  A    between atoms: _407  and  _408
REMARK  170  A    between atoms: _411  and  _413
REMARK  171  A    between atoms: _413  and  _414
REMARK  172  A    between atoms: _413  and  _416
REMARK  173  A    between atoms: _416  and  _417
REMARK  174  A    between atoms: _419  and  _421
REMARK  175  A    between atoms: _421  and  _422
REMARK  176  A    between atoms: _421  and  _424
REMARK  177  A    between atoms: _424  and  _425
REMARK  178  A    between atoms: _428  and  _430
REMARK  179  A    between atoms: _430  and  _431
REMARK  180  A    between atoms: _430  and  _433
REMARK  181  A    between atoms: _433  and  _434
REMARK  182  A    between atoms: _437  and  _439
REMARK  183  A    between atoms: _439  and  _440
REMARK  184  A    between atoms: _439  and  _442
REMARK  185  A    between atoms: _442  and  _443
REMARK  186  A    between atoms: _443  and  _444
REMARK  187  A    between atoms: _449  and  _451
REMARK  188  A    between atoms: _451  and  _452
REMARK  189  A    between atoms: _451  and  _454
REMARK  190  A    between atoms: _454  and  _455
REMARK  191  A    between atoms: _461  and  _463
REMARK  192  A    between atoms: _463  and  _464
REMARK  193  A    between atoms: _463  and  _466
REMARK  194  A    between atoms: _466  and  _467
REMARK  195  A    between atoms: _467  and  _468
REMARK  196  A    between atoms: _468  and  _469
REMARK  197  A    between atoms: _469  and  _470
REMARK  198  A    between atoms: _474  and  _476
REMARK  199  A    between atoms: _476  and  _477
REMARK  200  A    between atoms: _476  and  _479
REMARK  201  A    between atoms: _479  and  _480
REMARK  202  A    between atoms: _485  and  _487
REMARK  203  A    between atoms: _487  and  _488
REMARK  204  A    between atoms: _487  and  _490
REMARK  205  A    between atoms: _490  and  _491
REMARK  206  A    between atoms: _497  and  _499
REMARK  207  A    between atoms: _499  and  _500
REMARK  208  A    between atoms: _499  and  _502
REMARK  209  A    between atoms: _502  and  _503
REMARK  210  A    between atoms: _503  and  _504
REMARK  211  A    between atoms: _507  and  _509
REMARK  212  A    between atoms: _509  and  _510
REMARK  213  A    between atoms: _509  and  _512
REMARK  214  A    between atoms: _512  and  _513
REMARK  215  A    between atoms: _513  and  _514
REMARK  216  A    between atoms: _519  and  _521
REMARK  217  A    between atoms: _521  and  _522
REMARK  218  A    between atoms: _521  and  _524
REMARK  219  A    between atoms: _524  and  _525
REMARK  220  A    between atoms: _525  and  _526
REMARK  221  A    between atoms: _526  and  _527
REMARK  222  A    between atoms: _536  and  _538
REMARK  223  A    between atoms: _538  and  _539
REMARK                            x       y       z     vdW  Elec       q    Type
REMARK                         _______ _______ _______ _____ _____    ______ ____
ROOT
ATOM      1  O   HOH     1      31.011   0.642  28.280  0.00  0.00    +0.000 OA
ENDROOT
TORSDOF 0
REMARK  Name = ../refined-set-2016/2jfh/2jfh_pocket.pdb
REMARK  223 active torsions:
REMARK  status: ('A' for Active; 'I' for Inactive)
REMARK    1  A    between atoms: _1  and  _3
REMARK    2  A    between atoms: _3  and  _4
REMARK    3  A    between atoms: _3  and  _6
REMARK    4  A    between atoms: _6  and  _7
REMARK    5  A    between atoms: _10  and  _12
REMARK    6  A    between atoms: _12  and  _13
REMARK    7  A    between atoms: _12  and  _15
REMARK    8  A    between atoms: _15  and  _16
REMARK    9  A    between atoms: _19  and  _21
REMARK   10  A    between atoms: _21  and  _22
REMARK   11  A    between atoms: _24  and  _26
REMARK   12  A    between atoms: _26  and  _27
REMARK   13  A    between atoms: _26  and  _29
REMARK   14  A    between atoms: _29  and  _30
REMARK   15  A    between atoms: _33  and  _35
REMARK   16  A    between atoms: _35  and  _36
REMARK   17  A    between atoms: _38  and  _40
REMARK   18  A    between atoms: _40  and  _41
REMARK   19  A    between atoms: _40  and  _43
REMARK   20  A    between atoms: _43  and  _44
REMARK   21  A    between atoms: _47  and  _49
REMARK   22  A    between atoms: _49  and  _50
REMARK   23  A    between atoms: _49  and  _52
REMARK   24  A    between atoms: _52  and  _53
REMARK   25  A    between atoms: _53  and  _54
REMARK   26  A    between atoms: _56  and  _58
REMARK   27  A    between atoms: _58  and  _59
REMARK   28  A    between atoms: _58  and  _61
REMARK   29  A    between atoms: _61  and  _62
REMARK   30  A    between atoms: _65  and  _67
REMARK   31  A    between atoms: _67  and  _68
REMARK   32  A    between atoms: _67  and  _70
REMARK   33  A    between atoms: _70  and  _71
REMARK   34  A    between atoms: _74  and  _76
REMARK   35  A    between atoms: _76  and  _77
REMARK   36  A    between atoms: _76  and  _79
REMARK   37  A    between atoms: _79  and  _80
REMARK   38  A    between atoms: _80  and  _81
REMARK   39  A    between atoms: _81  and  _82
REMARK   40  A    between atoms: _92  and  _93
REMARK   41  A    between atoms: _99  and  _100
REMARK   42  A    between atoms: _105  and  _107
REMARK   43  A    between atoms: _107  and  _108
REMARK   44  A    between atoms: _110  and  _112
REMARK   45  A    between atoms: _112  and  _113
REMARK   46  A    between atoms: _112  and  _115
REMARK   47  A    between atoms: _115  and  _116
REMARK   48  A    between atoms: _118  and  _120
REMARK   49  A    between atoms: _120  and  _121
REMARK   50  A    between atoms: _120  and  _123
REMARK   51  A    between atoms: _123  and  _124
REMARK   52  A    between atoms: _127  and  _129
REMARK   53  A    between atoms: _129  and  _130
REMARK   54  A    between atoms: _133  and  _135
REMARK   55  A    between atoms: _135  and  _136
REMARK   56  A    between atoms: _135  and  _138
REMARK   57  A    between atoms: _138  and  _139
REMARK   58  A    between atoms: _142  and  _143
REMARK   59  A    between atoms: _148  and  _150
REMARK   60  A    between atoms: _150  and  _151
REMARK   61  A    between atoms: _153  and  _155
REMARK   62  A    between atoms: _155  and  _156
REMARK   63  A    between atoms: _155  and  _158
REMARK   64  A    between atoms: _158  and  _159
REMARK   65  A    between atoms: _162  and  _164
REMARK   66  A    between atoms: _164  and  _165
REMARK   67  A    between atoms: _168  and  _170
REMARK   68  A    between atoms: _170  and  _171
REMARK   69  A    between atoms: _170  and  _173
REMARK   70  A    between atoms: _173  and  _174
REMARK   71  A    between atoms: _179  and  _181
REMARK   72  A    between atoms: _181  and  _182
REMARK   73  A    between atoms: _181  and  _184
REMARK   74  A    between atoms: _184  and  _185
REMARK   75  A    between atoms: _187  and  _189
REMARK   76  A    between atoms: _189  and  _190
REMARK   77  A    between atoms: _189  and  _192
REMARK   78  A    between atoms: _192  and  _193
REMARK   79  A    between atoms: _193  and  _194
REMARK   80  A    between atoms: _194  and  _195
REMARK   81  A    between atoms: _195  and  _196
REMARK   82  A    between atoms: _200  and  _202
REMARK   83  A    between atoms: _202  and  _203
REMARK   84  A    between atoms: _202  and  _205
REMARK   85  A    between atoms: _205  and  _206
REMARK   86  A    between atoms: _211  and  _213
REMARK   87  A    between atoms: _213  and  _214
REMARK   88  A    between atoms: _213  and  _216
REMARK   89  A    between atoms: _216  and  _217
REMARK   90  A    between atoms: _219  and  _221
REMARK   91  A    between atoms: _221  and  _222
REMARK   92  A    between atoms: _221  and  _224
REMARK   93  A    between atoms: _224  and  _225
REMARK   94  A    between atoms: _227  and  _229
REMARK   95  A    between atoms: _229  and  _230
REMARK   96  A    between atoms: _229  and  _232
REMARK   97  A    between atoms: _232  and  _233
REMARK   98  A    between atoms: _239  and  _241
REMARK   99  A    between atoms: _241  and  _242
REMARK  100  A    between atoms: _241  and  _244
REMARK  101  A    between atoms: _244  and  _245
REMARK  102  A    between atoms: _245  and  _246
REMARK  103  A    between atoms: _251  and  _253
REMARK  104  A    between atoms: _253  and  _254
REMARK  105  A    between atoms: _253  and  _256
REMARK  106  A    between atoms: _256  and  _257
REMARK  107  A    between atoms: _260  and  _262
REMARK  108  A    between atoms: _262  and  _263
REMARK  109  A    between atoms: _262  and  _265
REMARK  110  A    between atoms: _265  and  _266
REMARK  111  A    between atoms: _271  and  _273
REMARK  112  A    between atoms: _273  and  _274
REMARK  113  A    between atoms: _273  and  _276
REMARK  114  A    between atoms: _276  and  _277
REMARK  115  A    between atoms: _280  and  _282
REMARK  116  A    between atoms: _282  and  _283
REMARK  117  A    between atoms: _282  and  _285
REMARK  118  A    between atoms: _285  and  _286
REMARK  119  A    between atoms: _286  and  _287
REMARK  120  A    between atoms: _287  and  _288
REMARK  121  A    between atoms: _297  and  _299
REMARK  122  A    between atoms: _299  and  _300
REMARK  123  A    between atoms: _299  and  _306
REMARK  124  A    between atoms: _300  and  _301
REMARK  125  A    between atoms: _301  and  _302
REMARK  126  A    between atoms: _302  and  _303
REMARK  127  A    between atoms: _303  and  _304
REMARK  128  A    between atoms: _311  and  _313
REMARK  129  A    between atoms: _313  and  _314
REMARK  130  A    between atoms: _313  and  _316
REMARK  131  A    between atoms: _316  and  _317
REMARK  132  A    between atoms: _319  and  _321
REMARK  133  A    between atoms: _321  and  _322
REMARK  134  A    between atoms: _321  and  _324
REMARK  135  A    between atoms: _324  and  _325
REMARK  136  A    between atoms: _325  and  _326
REMARK  137  A    between atoms: _326  and  _327
REMARK  138  A    between atoms: _327  and  _328
REMARK  139  A    between atoms: _332  and  _334
REMARK  140  A    between atoms: _334  and  _335
REMARK  141  A    between atoms: _338  and  _340
REMARK  142  A    between atoms: _340  and  _341
REMARK  143  A    between atoms: _340  and  _343
REMARK  144  A    between atoms: _343  and  _344
REMARK  145  A    between atoms: _347  and  _349
REMARK  146  A    between atoms: _349  and  _350
REMARK  147  A    between atoms: _349  and  _352
REMARK  148  A    between atoms: _352  and  _353
REMARK  149  A    between atoms: _358  and  _360
REMARK  150  A    between atoms: _360  and  _361
REMARK  151  A    between atoms: _360  and  _363
REMARK  152  A    between atoms: _363  and  _364
REMARK  153  A    between atoms: _367  and  _369
REMARK  154  A    between atoms: _369  and  _370
REMARK  155  A    between atoms: _372  and  _374
REMARK  156  A    between atoms: _374  and  _375
REMARK  157  A    between atoms: _374  and  _377
REMARK  158  A    between atoms: _377  and  _378
REMARK  159  A    between atoms: _378  and  _379
REMARK  160  A    between atoms: _379  and  _380
REMARK  161  A    between atoms: _380  and  _381
REMARK  162  A    between atoms: _386  and  _387
REMARK  163  A    between atoms: _392  and  _394
REMARK  164  A    between atoms: _394  and  _395
REMARK  165  A    between atoms: _398  and  _400
REMARK  166  A    between atoms: _400  and  _401
REMARK  167  A    between atoms: _400  and  _403
REMARK  168  A    between atoms: _405  and  _407
REMARK  169  A    between atoms: _407  and  _408
REMARK  170  A    between atoms: _411  and  _413
REMARK  171  A    between atoms: _413  and  _414
REMARK  172  A    between atoms: _413  and  _416
REMARK  173  A    between atoms: _416  and  _417
REMARK  174  A    between atoms: _419  and  _421
REMARK  175  A    between atoms: _421  and  _422
REMARK  176  A    between atoms: _421  and  _424
REMARK  177  A    between atoms: _424  and  _425
REMARK  178  A    between atoms: _428  and  _430
REMARK  179  A    between atoms: _430  and  _431
REMARK  180  A    between atoms: _430  and  _433
REMARK  181  A    between atoms: _433  and  _434
REMARK  182  A    between atoms: _437  and  _439
REMARK  183  A    between atoms: _439  and  _440
REMARK  184  A    between atoms: _439  and  _442
REMARK  185  A    between atoms: _442  and  _443
REMARK  186  A    between atoms: _443  and  _444
REMARK  187  A    between atoms: _449  and  _451
REMARK  188  A    between atoms: _451  and  _452
REMARK  189  A    between atoms: _451  and  _454
REMARK  190  A    between atoms: _454  and  _455
REMARK  191  A    between atoms: _461  and  _463
REMARK  192  A    between atoms: _463  and  _464
REMARK  193  A    between atoms: _463  and  _466
REMARK  194  A    between atoms: _466  and  _467
REMARK  195  A    between atoms: _467  and  _468
REMARK  196  A    between atoms: _468  and  _469
REMARK  197  A    between atoms: _469  and  _470
REMARK  198  A    between atoms: _474  and  _476
REMARK  199  A    between atoms: _476  and  _477
REMARK  200  A    between atoms: _476  and  _479
REMARK  201  A    between atoms: _479  and  _480
REMARK  202  A    between atoms: _485  and  _487
REMARK  203  A    between atoms: _487  and  _488
REMARK  204  A    between atoms: _487  and  _490
REMARK  205  A    between atoms: _490  and  _491
REMARK  206  A    between atoms: _497  and  _499
REMARK  207  A    between atoms: _499  and  _500
REMARK  208  A    between atoms: _499  and  _502
REMARK  209  A    between atoms: _502  and  _503
REMARK  210  A    between atoms: _503  and  _504
REMARK  211  A    between atoms: _507  and  _509
REMARK  212  A    between atoms: _509  and  _510
REMARK  213  A    between atoms: _509  and  _512
REMARK  214  A    between atoms: _512  and  _513
REMARK  215  A    between atoms: _513  and  _514
REMARK  216  A    between atoms: _519  and  _521
REMARK  217  A    between atoms: _521  and  _522
REMARK  218  A    between atoms: _521  and  _524
REMARK  219  A    between atoms: _524  and  _525
REMARK  220  A    between atoms: _525  and  _526
REMARK  221  A    between atoms: _526  and  _527
REMARK  222  A    between atoms: _536  and  _538
REMARK  223  A    between atoms: _538  and  _539
REMARK                            x       y       z     vdW  Elec       q    Type
REMARK                         _______ _______ _______ _____ _____    ______ ____
ROOT
ATOM      1  O   HOH     1      32.572  -0.836  26.725  0.00  0.00    +0.000 OA
ENDROOT
TORSDOF 0
REMARK  Name = ../refined-set-2016/2jfh/2jfh_pocket.pdb
REMARK  223 active torsions:
REMARK  status: ('A' for Active; 'I' for Inactive)
REMARK    1  A    between atoms: _1  and  _3
REMARK    2  A    between atoms: _3  and  _4
REMARK    3  A    between atoms: _3  and  _6
REMARK    4  A    between atoms: _6  and  _7
REMARK    5  A    between atoms: _10  and  _12
REMARK    6  A    between atoms: _12  and  _13
REMARK    7  A    between atoms: _12  and  _15
REMARK    8  A    between atoms: _15  and  _16
REMARK    9  A    between atoms: _19  and  _21
REMARK   10  A    between atoms: _21  and  _22
REMARK   11  A    between atoms: _24  and  _26
REMARK   12  A    between atoms: _26  and  _27
REMARK   13  A    between atoms: _26  and  _29
REMARK   14  A    between atoms: _29  and  _30
REMARK   15  A    between atoms: _33  and  _35
REMARK   16  A    between atoms: _35  and  _36
REMARK   17  A    between atoms: _38  and  _40
REMARK   18  A    between atoms: _40  and  _41
REMARK   19  A    between atoms: _40  and  _43
REMARK   20  A    between atoms: _43  and  _44
REMARK   21  A    between atoms: _47  and  _49
REMARK   22  A    between atoms: _49  and  _50
REMARK   23  A    between atoms: _49  and  _52
REMARK   24  A    between atoms: _52  and  _53
REMARK   25  A    between atoms: _53  and  _54
REMARK   26  A    between atoms: _56  and  _58
REMARK   27  A    between atoms: _58  and  _59
REMARK   28  A    between atoms: _58  and  _61
REMARK   29  A    between atoms: _61  and  _62
REMARK   30  A    between atoms: _65  and  _67
REMARK   31  A    between atoms: _67  and  _68
REMARK   32  A    between atoms: _67  and  _70
REMARK   33  A    between atoms: _70  and  _71
REMARK   34  A    between atoms: _74  and  _76
REMARK   35  A    between atoms: _76  and  _77
REMARK   36  A    between atoms: _76  and  _79
REMARK   37  A    between atoms: _79  and  _80
REMARK   38  A    between atoms: _80  and  _81
REMARK   39  A    between atoms: _81  and  _82
REMARK   40  A    between atoms: _92  and  _93
REMARK   41  A    between atoms: _99  and  _100
REMARK   42  A    between atoms: _105  and  _107
REMARK   43  A    between atoms: _107  and  _108
REMARK   44  A    between atoms: _110  and  _112
REMARK   45  A    between atoms: _112  and  _113
REMARK   46  A    between atoms: _112  and  _115
REMARK   47  A    between atoms: _115  and  _116
REMARK   48  A    between atoms: _118  and  _120
REMARK   49  A    between atoms: _120  and  _121
REMARK   50  A    between atoms: _120  and  _123
REMARK   51  A    between atoms: _123  and  _124
REMARK   52  A    between atoms: _127  and  _129
REMARK   53  A    between atoms: _129  and  _130
REMARK   54  A    between atoms: _133  and  _135
REMARK   55  A    between atoms: _135  and  _136
REMARK   56  A    between atoms: _135  and  _138
REMARK   57  A    between atoms: _138  and  _139
REMARK   58  A    between atoms: _142  and  _143
REMARK   59  A    between atoms: _148  and  _150
REMARK   60  A    between atoms: _150  and  _151
REMARK   61  A    between atoms: _153  and  _155
REMARK   62  A    between atoms: _155  and  _156
REMARK   63  A    between atoms: _155  and  _158
REMARK   64  A    between atoms: _158  and  _159
REMARK   65  A    between atoms: _162  and  _164
REMARK   66  A    between atoms: _164  and  _165
REMARK   67  A    between atoms: _168  and  _170
REMARK   68  A    between atoms: _170  and  _171
REMARK   69  A    between atoms: _170  and  _173
REMARK   70  A    between atoms: _173  and  _174
REMARK   71  A    between atoms: _179  and  _181
REMARK   72  A    between atoms: _181  and  _182
REMARK   73  A    between atoms: _181  and  _184
REMARK   74  A    between atoms: _184  and  _185
REMARK   75  A    between atoms: _187  and  _189
REMARK   76  A    between atoms: _189  and  _190
REMARK   77  A    between atoms: _189  and  _192
REMARK   78  A    between atoms: _192  and  _193
REMARK   79  A    between atoms: _193  and  _194
REMARK   80  A    between atoms: _194  and  _195
REMARK   81  A    between atoms: _195  and  _196
REMARK   82  A    between atoms: _200  and  _202
REMARK   83  A    between atoms: _202  and  _203
REMARK   84  A    between atoms: _202  and  _205
REMARK   85  A    between atoms: _205  and  _206
REMARK   86  A    between atoms: _211  and  _213
REMARK   87  A    between atoms: _213  and  _214
REMARK   88  A    between atoms: _213  and  _216
REMARK   89  A    between atoms: _216  and  _217
REMARK   90  A    between atoms: _219  and  _221
REMARK   91  A    between atoms: _221  and  _222
REMARK   92  A    between atoms: _221  and  _224
REMARK   93  A    between atoms: _224  and  _225
REMARK   94  A    between atoms: _227  and  _229
REMARK   95  A    between atoms: _229  and  _230
REMARK   96  A    between atoms: _229  and  _232
REMARK   97  A    between atoms: _232  and  _233
REMARK   98  A    between atoms: _239  and  _241
REMARK   99  A    between atoms: _241  and  _242
REMARK  100  A    between atoms: _241  and  _244
REMARK  101  A    between atoms: _244  and  _245
REMARK  102  A    between atoms: _245  and  _246
REMARK  103  A    between atoms: _251  and  _253
REMARK  104  A    between atoms: _253  and  _254
REMARK  105  A    between atoms: _253  and  _256
REMARK  106  A    between atoms: _256  and  _257
REMARK  107  A    between atoms: _260  and  _262
REMARK  108  A    between atoms: _262  and  _263
REMARK  109  A    between atoms: _262  and  _265
REMARK  110  A    between atoms: _265  and  _266
REMARK  111  A    between atoms: _271  and  _273
REMARK  112  A    between atoms: _273  and  _274
REMARK  113  A    between atoms: _273  and  _276
REMARK  114  A    between atoms: _276  and  _277
REMARK  115  A    between atoms: _280  and  _282
REMARK  116  A    between atoms: _282  and  _283
REMARK  117  A    between atoms: _282  and  _285
REMARK  118  A    between atoms: _285  and  _286
REMARK  119  A    between atoms: _286  and  _287
REMARK  120  A    between atoms: _287  and  _288
REMARK  121  A    between atoms: _297  and  _299
REMARK  122  A    between atoms: _299  and  _300
REMARK  123  A    between atoms: _299  and  _306
REMARK  124  A    between atoms: _300  and  _301
REMARK  125  A    between atoms: _301  and  _302
REMARK  126  A    between atoms: _302  and  _303
REMARK  127  A    between atoms: _303  and  _304
REMARK  128  A    between atoms: _311  and  _313
REMARK  129  A    between atoms: _313  and  _314
REMARK  130  A    between atoms: _313  and  _316
REMARK  131  A    between atoms: _316  and  _317
REMARK  132  A    between atoms: _319  and  _321
REMARK  133  A    between atoms: _321  and  _322
REMARK  134  A    between atoms: _321  and  _324
REMARK  135  A    between atoms: _324  and  _325
REMARK  136  A    between atoms: _325  and  _326
REMARK  137  A    between atoms: _326  and  _327
REMARK  138  A    between atoms: _327  and  _328
REMARK  139  A    between atoms: _332  and  _334
REMARK  140  A    between atoms: _334  and  _335
REMARK  141  A    between atoms: _338  and  _340
REMARK  142  A    between atoms: _340  and  _341
REMARK  143  A    between atoms: _340  and  _343
REMARK  144  A    between atoms: _343  and  _344
REMARK  145  A    between atoms: _347  and  _349
REMARK  146  A    between atoms: _349  and  _350
REMARK  147  A    between atoms: _349  and  _352
REMARK  148  A    between atoms: _352  and  _353
REMARK  149  A    between atoms: _358  and  _360
REMARK  150  A    between atoms: _360  and  _361
REMARK  151  A    between atoms: _360  and  _363
REMARK  152  A    between atoms: _363  and  _364
REMARK  153  A    between atoms: _367  and  _369
REMARK  154  A    between atoms: _369  and  _370
REMARK  155  A    between atoms: _372  and  _374
REMARK  156  A    between atoms: _374  and  _375
REMARK  157  A    between atoms: _374  and  _377
REMARK  158  A    between atoms: _377  and  _378
REMARK  159  A    between atoms: _378  and  _379
REMARK  160  A    between atoms: _379  and  _380
REMARK  161  A    between atoms: _380  and  _381
REMARK  162  A    between atoms: _386  and  _387
REMARK  163  A    between atoms: _392  and  _394
REMARK  164  A    between atoms: _394  and  _395
REMARK  165  A    between atoms: _398  and  _400
REMARK  166  A    between atoms: _400  and  _401
REMARK  167  A    between atoms: _400  and  _403
REMARK  168  A    between atoms: _405  and  _407
REMARK  169  A    between atoms: _407  and  _408
REMARK  170  A    between atoms: _411  and  _413
REMARK  171  A    between atoms: _413  and  _414
REMARK  172  A    between atoms: _413  and  _416
REMARK  173  A    between atoms: _416  and  _417
REMARK  174  A    between atoms: _419  and  _421
REMARK  175  A    between atoms: _421  and  _422
REMARK  176  A    between atoms: _421  and  _424
REMARK  177  A    between atoms: _424  and  _425
REMARK  178  A    between atoms: _428  and  _430
REMARK  179  A    between atoms: _430  and  _431
REMARK  180  A    between atoms: _430  and  _433
REMARK  181  A    between atoms: _433  and  _434
REMARK  182  A    between atoms: _437  and  _439
REMARK  183  A    between atoms: _439  and  _440
REMARK  184  A    between atoms: _439  and  _442
REMARK  185  A    between atoms: _442  and  _443
REMARK  186  A    between atoms: _443  and  _444
REMARK  187  A    between atoms: _449  and  _451
REMARK  188  A    between atoms: _451  and  _452
REMARK  189  A    between atoms: _451  and  _454
REMARK  190  A    between atoms: _454  and  _455
REMARK  191  A    between atoms: _461  and  _463
REMARK  192  A    between atoms: _463  and  _464
REMARK  193  A    between atoms: _463  and  _466
REMARK  194  A    between atoms: _466  and  _467
REMARK  195  A    between atoms: _467  and  _468
REMARK  196  A    between atoms: _468  and  _469
REMARK  197  A    between atoms: _469  and  _470
REMARK  198  A    between atoms: _474  and  _476
REMARK  199  A    between atoms: _476  and  _477
REMARK  200  A    between atoms: _476  and  _479
REMARK  201  A    between atoms: _479  and  _480
REMARK  202  A    between atoms: _485  and  _487
REMARK  203  A    between atoms: _487  and  _488
REMARK  204  A    between atoms: _487  and  _490
REMARK  205  A    between atoms: _490  and  _491
REMARK  206  A    between atoms: _497  and  _499
REMARK  207  A    between atoms: _499  and  _500
REMARK  208  A    between atoms: _499  and  _502
REMARK  209  A    between atoms: _502  and  _503
REMARK  210  A    between atoms: _503  and  _504
REMARK  211  A    between atoms: _507  and  _509
REMARK  212  A    between atoms: _509  and  _510
REMARK  213  A    between atoms: _509  and  _512
REMARK  214  A    between atoms: _512  and  _513
REMARK  215  A    between atoms: _513  and  _514
REMARK  216  A    between atoms: _519  and  _521
REMARK  217  A    between atoms: _521  and  _522
REMARK  218  A    between atoms: _521  and  _524
REMARK  219  A    between atoms: _524  and  _525
REMARK  220  A    between atoms: _525  and  _526
REMARK  221  A    between atoms: _526  and  _527
REMARK  222  A    between atoms: _536  and  _538
REMARK  223  A    between atoms: _538  and  _539
REMARK                            x       y       z     vdW  Elec       q    Type
REMARK                         _______ _______ _______ _____ _____    ______ ____
ROOT
ATOM      1  O   HOH     1      26.814  -7.910  18.952  0.00  0.00    +0.000 OA
ENDROOT
TORSDOF 0
REMARK  Name = ../refined-set-2016/2jfh/2jfh_pocket.pdb
REMARK  223 active torsions:
REMARK  status: ('A' for Active; 'I' for Inactive)
REMARK    1  A    between atoms: _1  and  _3
REMARK    2  A    between atoms: _3  and  _4
REMARK    3  A    between atoms: _3  and  _6
REMARK    4  A    between atoms: _6  and  _7
REMARK    5  A    between atoms: _10  and  _12
REMARK    6  A    between atoms: _12  and  _13
REMARK    7  A    between atoms: _12  and  _15
REMARK    8  A    between atoms: _15  and  _16
REMARK    9  A    between atoms: _19  and  _21
REMARK   10  A    between atoms: _21  and  _22
REMARK   11  A    between atoms: _24  and  _26
REMARK   12  A    between atoms: _26  and  _27
REMARK   13  A    between atoms: _26  and  _29
REMARK   14  A    between atoms: _29  and  _30
REMARK   15  A    between atoms: _33  and  _35
REMARK   16  A    between atoms: _35  and  _36
REMARK   17  A    between atoms: _38  and  _40
REMARK   18  A    between atoms: _40  and  _41
REMARK   19  A    between atoms: _40  and  _43
REMARK   20  A    between atoms: _43  and  _44
REMARK   21  A    between atoms: _47  and  _49
REMARK   22  A    between atoms: _49  and  _50
REMARK   23  A    between atoms: _49  and  _52
REMARK   24  A    between atoms: _52  and  _53
REMARK   25  A    between atoms: _53  and  _54
REMARK   26  A    between atoms: _56  and  _58
REMARK   27  A    between atoms: _58  and  _59
REMARK   28  A    between atoms: _58  and  _61
REMARK   29  A    between atoms: _61  and  _62
REMARK   30  A    between atoms: _65  and  _67
REMARK   31  A    between atoms: _67  and  _68
REMARK   32  A    between atoms: _67  and  _70
REMARK   33  A    between atoms: _70  and  _71
REMARK   34  A    between atoms: _74  and  _76
REMARK   35  A    between atoms: _76  and  _77
REMARK   36  A    between atoms: _76  and  _79
REMARK   37  A    between atoms: _79  and  _80
REMARK   38  A    between atoms: _80  and  _81
REMARK   39  A    between atoms: _81  and  _82
REMARK   40  A    between atoms: _92  and  _93
REMARK   41  A    between atoms: _99  and  _100
REMARK   42  A    between atoms: _105  and  _107
REMARK   43  A    between atoms: _107  and  _108
REMARK   44  A    between atoms: _110  and  _112
REMARK   45  A    between atoms: _112  and  _113
REMARK   46  A    between atoms: _112  and  _115
REMARK   47  A    between atoms: _115  and  _116
REMARK   48  A    between atoms: _118  and  _120
REMARK   49  A    between atoms: _120  and  _121
REMARK   50  A    between atoms: _120  and  _123
REMARK   51  A    between atoms: _123  and  _124
REMARK   52  A    between atoms: _127  and  _129
REMARK   53  A    between atoms: _129  and  _130
REMARK   54  A    between atoms: _133  and  _135
REMARK   55  A    between atoms: _135  and  _136
REMARK   56  A    between atoms: _135  and  _138
REMARK   57  A    between atoms: _138  and  _139
REMARK   58  A    between atoms: _142  and  _143
REMARK   59  A    between atoms: _148  and  _150
REMARK   60  A    between atoms: _150  and  _151
REMARK   61  A    between atoms: _153  and  _155
REMARK   62  A    between atoms: _155  and  _156
REMARK   63  A    between atoms: _155  and  _158
REMARK   64  A    between atoms: _158  and  _159
REMARK   65  A    between atoms: _162  and  _164
REMARK   66  A    between atoms: _164  and  _165
REMARK   67  A    between atoms: _168  and  _170
REMARK   68  A    between atoms: _170  and  _171
REMARK   69  A    between atoms: _170  and  _173
REMARK   70  A    between atoms: _173  and  _174
REMARK   71  A    between atoms: _179  and  _181
REMARK   72  A    between atoms: _181  and  _182
REMARK   73  A    between atoms: _181  and  _184
REMARK   74  A    between atoms: _184  and  _185
REMARK   75  A    between atoms: _187  and  _189
REMARK   76  A    between atoms: _189  and  _190
REMARK   77  A    between atoms: _189  and  _192
REMARK   78  A    between atoms: _192  and  _193
REMARK   79  A    between atoms: _193  and  _194
REMARK   80  A    between atoms: _194  and  _195
REMARK   81  A    between atoms: _195  and  _196
REMARK   82  A    between atoms: _200  and  _202
REMARK   83  A    between atoms: _202  and  _203
REMARK   84  A    between atoms: _202  and  _205
REMARK   85  A    between atoms: _205  and  _206
REMARK   86  A    between atoms: _211  and  _213
REMARK   87  A    between atoms: _213  and  _214
REMARK   88  A    between atoms: _213  and  _216
REMARK   89  A    between atoms: _216  and  _217
REMARK   90  A    between atoms: _219  and  _221
REMARK   91  A    between atoms: _221  and  _222
REMARK   92  A    between atoms: _221  and  _224
REMARK   93  A    between atoms: _224  and  _225
REMARK   94  A    between atoms: _227  and  _229
REMARK   95  A    between atoms: _229  and  _230
REMARK   96  A    between atoms: _229  and  _232
REMARK   97  A    between atoms: _232  and  _233
REMARK   98  A    between atoms: _239  and  _241
REMARK   99  A    between atoms: _241  and  _242
REMARK  100  A    between atoms: _241  and  _244
REMARK  101  A    between atoms: _244  and  _245
REMARK  102  A    between atoms: _245  and  _246
REMARK  103  A    between atoms: _251  and  _253
REMARK  104  A    between atoms: _253  and  _254
REMARK  105  A    between atoms: _253  and  _256
REMARK  106  A    between atoms: _256  and  _257
REMARK  107  A    between atoms: _260  and  _262
REMARK  108  A    between atoms: _262  and  _263
REMARK  109  A    between atoms: _262  and  _265
REMARK  110  A    between atoms: _265  and  _266
REMARK  111  A    between atoms: _271  and  _273
REMARK  112  A    between atoms: _273  and  _274
REMARK  113  A    between atoms: _273  and  _276
REMARK  114  A    between atoms: _276  and  _277
REMARK  115  A    between atoms: _280  and  _282
REMARK  116  A    between atoms: _282  and  _283
REMARK  117  A    between atoms: _282  and  _285
REMARK  118  A    between atoms: _285  and  _286
REMARK  119  A    between atoms: _286  and  _287
REMARK  120  A    between atoms: _287  and  _288
REMARK  121  A    between atoms: _297  and  _299
REMARK  122  A    between atoms: _299  and  _300
REMARK  123  A    between atoms: _299  and  _306
REMARK  124  A    between atoms: _300  and  _301
REMARK  125  A    between atoms: _301  and  _302
REMARK  126  A    between atoms: _302  and  _303
REMARK  127  A    between atoms: _303  and  _304
REMARK  128  A    between atoms: _311  and  _313
REMARK  129  A    between atoms: _313  and  _314
REMARK  130  A    between atoms: _313  and  _316
REMARK  131  A    between atoms: _316  and  _317
REMARK  132  A    between atoms: _319  and  _321
REMARK  133  A    between atoms: _321  and  _322
REMARK  134  A    between atoms: _321  and  _324
REMARK  135  A    between atoms: _324  and  _325
REMARK  136  A    between atoms: _325  and  _326
REMARK  137  A    between atoms: _326  and  _327
REMARK  138  A    between atoms: _327  and  _328
REMARK  139  A    between atoms: _332  and  _334
REMARK  140  A    between atoms: _334  and  _335
REMARK  141  A    between atoms: _338  and  _340
REMARK  142  A    between atoms: _340  and  _341
REMARK  143  A    between atoms: _340  and  _343
REMARK  144  A    between atoms: _343  and  _344
REMARK  145  A    between atoms: _347  and  _349
REMARK  146  A    between atoms: _349  and  _350
REMARK  147  A    between atoms: _349  and  _352
REMARK  148  A    between atoms: _352  and  _353
REMARK  149  A    between atoms: _358  and  _360
REMARK  150  A    between atoms: _360  and  _361
REMARK  151  A    between atoms: _360  and  _363
REMARK  152  A    between atoms: _363  and  _364
REMARK  153  A    between atoms: _367  and  _369
REMARK  154  A    between atoms: _369  and  _370
REMARK  155  A    between atoms: _372  and  _374
REMARK  156  A    between atoms: _374  and  _375
REMARK  157  A    between atoms: _374  and  _377
REMARK  158  A    between atoms: _377  and  _378
REMARK  159  A    between atoms: _378  and  _379
REMARK  160  A    between atoms: _379  and  _380
REMARK  161  A    between atoms: _380  and  _381
REMARK  162  A    between atoms: _386  and  _387
REMARK  163  A    between atoms: _392  and  _394
REMARK  164  A    between atoms: _394  and  _395
REMARK  165  A    between atoms: _398  and  _400
REMARK  166  A    between atoms: _400  and  _401
REMARK  167  A    between atoms: _400  and  _403
REMARK  168  A    between atoms: _405  and  _407
REMARK  169  A    between atoms: _407  and  _408
REMARK  170  A    between atoms: _411  and  _413
REMARK  171  A    between atoms: _413  and  _414
REMARK  172  A    between atoms: _413  and  _416
REMARK  173  A    between atoms: _416  and  _417
REMARK  174  A    between atoms: _419  and  _421
REMARK  175  A    between atoms: _421  and  _422
REMARK  176  A    between atoms: _421  and  _424
REMARK  177  A    between atoms: _424  and  _425
REMARK  178  A    between atoms: _428  and  _430
REMARK  179  A    between atoms: _430  and  _431
REMARK  180  A    between atoms: _430  and  _433
REMARK  181  A    between atoms: _433  and  _434
REMARK  182  A    between atoms: _437  and  _439
REMARK  183  A    between atoms: _439  and  _440
REMARK  184  A    between atoms: _439  and  _442
REMARK  185  A    between atoms: _442  and  _443
REMARK  186  A    between atoms: _443  and  _444
REMARK  187  A    between atoms: _449  and  _451
REMARK  188  A    between atoms: _451  and  _452
REMARK  189  A    between atoms: _451  and  _454
REMARK  190  A    between atoms: _454  and  _455
REMARK  191  A    between atoms: _461  and  _463
REMARK  192  A    between atoms: _463  and  _464
REMARK  193  A    between atoms: _463  and  _466
REMARK  194  A    between atoms: _466  and  _467
REMARK  195  A    between atoms: _467  and  _468
REMARK  196  A    between atoms: _468  and  _469
REMARK  197  A    between atoms: _469  and  _470
REMARK  198  A    between atoms: _474  and  _476
REMARK  199  A    between atoms: _476  and  _477
REMARK  200  A    between atoms: _476  and  _479
REMARK  201  A    between atoms: _479  and  _480
REMARK  202  A    between atoms: _485  and  _487
REMARK  203  A    between atoms: _487  and  _488
REMARK  204  A    between atoms: _487  and  _490
REMARK  205  A    between atoms: _490  and  _491
REMARK  206  A    between atoms: _497  and  _499
REMARK  207  A    between atoms: _499  and  _500
REMARK  208  A    between atoms: _499  and  _502
REMARK  209  A    between atoms: _502  and  _503
REMARK  210  A    between atoms: _503  and  _504
REMARK  211  A    between atoms: _507  and  _509
REMARK  212  A    between atoms: _509  and  _510
REMARK  213  A    between atoms: _509  and  _512
REMARK  214  A    between atoms: _512  and  _513
REMARK  215  A    between atoms: _513  and  _514
REMARK  216  A    between atoms: _519  and  _521
REMARK  217  A    between atoms: _521  and  _522
REMARK  218  A    between atoms: _521  and  _524
REMARK  219  A    between atoms: _524  and  _525
REMARK  220  A    between atoms: _525  and  _526
REMARK  221  A    between atoms: _526  and  _527
REMARK  222  A    between atoms: _536  and  _538
REMARK  223  A    between atoms: _538  and  _539
REMARK                            x       y       z     vdW  Elec       q    Type
REMARK                         _______ _______ _______ _____ _____    ______ ____
ROOT
ATOM      1  O   HOH     1      19.553  -3.601  16.361  0.00  0.00    +0.000 OA
ENDROOT
TORSDOF 0
REMARK  Name = ../refined-set-2016/2jfh/2jfh_pocket.pdb
REMARK  223 active torsions:
REMARK  status: ('A' for Active; 'I' for Inactive)
REMARK    1  A    between atoms: _1  and  _3
REMARK    2  A    between atoms: _3  and  _4
REMARK    3  A    between atoms: _3  and  _6
REMARK    4  A    between atoms: _6  and  _7
REMARK    5  A    between atoms: _10  and  _12
REMARK    6  A    between atoms: _12  and  _13
REMARK    7  A    between atoms: _12  and  _15
REMARK    8  A    between atoms: _15  and  _16
REMARK    9  A    between atoms: _19  and  _21
REMARK   10  A    between atoms: _21  and  _22
REMARK   11  A    between atoms: _24  and  _26
REMARK   12  A    between atoms: _26  and  _27
REMARK   13  A    between atoms: _26  and  _29
REMARK   14  A    between atoms: _29  and  _30
REMARK   15  A    between atoms: _33  and  _35
REMARK   16  A    between atoms: _35  and  _36
REMARK   17  A    between atoms: _38  and  _40
REMARK   18  A    between atoms: _40  and  _41
REMARK   19  A    between atoms: _40  and  _43
REMARK   20  A    between atoms: _43  and  _44
REMARK   21  A    between atoms: _47  and  _49
REMARK   22  A    between atoms: _49  and  _50
REMARK   23  A    between atoms: _49  and  _52
REMARK   24  A    between atoms: _52  and  _53
REMARK   25  A    between atoms: _53  and  _54
REMARK   26  A    between atoms: _56  and  _58
REMARK   27  A    between atoms: _58  and  _59
REMARK   28  A    between atoms: _58  and  _61
REMARK   29  A    between atoms: _61  and  _62
REMARK   30  A    between atoms: _65  and  _67
REMARK   31  A    between atoms: _67  and  _68
REMARK   32  A    between atoms: _67  and  _70
REMARK   33  A    between atoms: _70  and  _71
REMARK   34  A    between atoms: _74  and  _76
REMARK   35  A    between atoms: _76  and  _77
REMARK   36  A    between atoms: _76  and  _79
REMARK   37  A    between atoms: _79  and  _80
REMARK   38  A    between atoms: _80  and  _81
REMARK   39  A    between atoms: _81  and  _82
REMARK   40  A    between atoms: _92  and  _93
REMARK   41  A    between atoms: _99  and  _100
REMARK   42  A    between atoms: _105  and  _107
REMARK   43  A    between atoms: _107  and  _108
REMARK   44  A    between atoms: _110  and  _112
REMARK   45  A    between atoms: _112  and  _113
REMARK   46  A    between atoms: _112  and  _115
REMARK   47  A    between atoms: _115  and  _116
REMARK   48  A    between atoms: _118  and  _120
REMARK   49  A    between atoms: _120  and  _121
REMARK   50  A    between atoms: _120  and  _123
REMARK   51  A    between atoms: _123  and  _124
REMARK   52  A    between atoms: _127  and  _129
REMARK   53  A    between atoms: _129  and  _130
REMARK   54  A    between atoms: _133  and  _135
REMARK   55  A    between atoms: _135  and  _136
REMARK   56  A    between atoms: _135  and  _138
REMARK   57  A    between atoms: _138  and  _139
REMARK   58  A    between atoms: _142  and  _143
REMARK   59  A    between atoms: _148  and  _150
REMARK   60  A    between atoms: _150  and  _151
REMARK   61  A    between atoms: _153  and  _155
REMARK   62  A    between atoms: _155  and  _156
REMARK   63  A    between atoms: _155  and  _158
REMARK   64  A    between atoms: _158  and  _159
REMARK   65  A    between atoms: _162  and  _164
REMARK   66  A    between atoms: _164  and  _165
REMARK   67  A    between atoms: _168  and  _170
REMARK   68  A    between atoms: _170  and  _171
REMARK   69  A    between atoms: _170  and  _173
REMARK   70  A    between atoms: _173  and  _174
REMARK   71  A    between atoms: _179  and  _181
REMARK   72  A    between atoms: _181  and  _182
REMARK   73  A    between atoms: _181  and  _184
REMARK   74  A    between atoms: _184  and  _185
REMARK   75  A    between atoms: _187  and  _189
REMARK   76  A    between atoms: _189  and  _190
REMARK   77  A    between atoms: _189  and  _192
REMARK   78  A    between atoms: _192  and  _193
REMARK   79  A    between atoms: _193  and  _194
REMARK   80  A    between atoms: _194  and  _195
REMARK   81  A    between atoms: _195  and  _196
REMARK   82  A    between atoms: _200  and  _202
REMARK   83  A    between atoms: _202  and  _203
REMARK   84  A    between atoms: _202  and  _205
REMARK   85  A    between atoms: _205  and  _206
REMARK   86  A    between atoms: _211  and  _213
REMARK   87  A    between atoms: _213  and  _214
REMARK   88  A    between atoms: _213  and  _216
REMARK   89  A    between atoms: _216  and  _217
REMARK   90  A    between atoms: _219  and  _221
REMARK   91  A    between atoms: _221  and  _222
REMARK   92  A    between atoms: _221  and  _224
REMARK   93  A    between atoms: _224  and  _225
REMARK   94  A    between atoms: _227  and  _229
REMARK   95  A    between atoms: _229  and  _230
REMARK   96  A    between atoms: _229  and  _232
REMARK   97  A    between atoms: _232  and  _233
REMARK   98  A    between atoms: _239  and  _241
REMARK   99  A    between atoms: _241  and  _242
REMARK  100  A    between atoms: _241  and  _244
REMARK  101  A    between atoms: _244  and  _245
REMARK  102  A    between atoms: _245  and  _246
REMARK  103  A    between atoms: _251  and  _253
REMARK  104  A    between atoms: _253  and  _254
REMARK  105  A    between atoms: _253  and  _256
REMARK  106  A    between atoms: _256  and  _257
REMARK  107  A    between atoms: _260  and  _262
REMARK  108  A    between atoms: _262  and  _263
REMARK  109  A    between atoms: _262  and  _265
REMARK  110  A    between atoms: _265  and  _266
REMARK  111  A    between atoms: _271  and  _273
REMARK  112  A    between atoms: _273  and  _274
REMARK  113  A    between atoms: _273  and  _276
REMARK  114  A    between atoms: _276  and  _277
REMARK  115  A    between atoms: _280  and  _282
REMARK  116  A    between atoms: _282  and  _283
REMARK  117  A    between atoms: _282  and  _285
REMARK  118  A    between atoms: _285  and  _286
REMARK  119  A    between atoms: _286  and  _287
REMARK  120  A    between atoms: _287  and  _288
REMARK  121  A    between atoms: _297  and  _299
REMARK  122  A    between atoms: _299  and  _300
REMARK  123  A    between atoms: _299  and  _306
REMARK  124  A    between atoms: _300  and  _301
REMARK  125  A    between atoms: _301  and  _302
REMARK  126  A    between atoms: _302  and  _303
REMARK  127  A    between atoms: _303  and  _304
REMARK  128  A    between atoms: _311  and  _313
REMARK  129  A    between atoms: _313  and  _314
REMARK  130  A    between atoms: _313  and  _316
REMARK  131  A    between atoms: _316  and  _317
REMARK  132  A    between atoms: _319  and  _321
REMARK  133  A    between atoms: _321  and  _322
REMARK  134  A    between atoms: _321  and  _324
REMARK  135  A    between atoms: _324  and  _325
REMARK  136  A    between atoms: _325  and  _326
REMARK  137  A    between atoms: _326  and  _327
REMARK  138  A    between atoms: _327  and  _328
REMARK  139  A    between atoms: _332  and  _334
REMARK  140  A    between atoms: _334  and  _335
REMARK  141  A    between atoms: _338  and  _340
REMARK  142  A    between atoms: _340  and  _341
REMARK  143  A    between atoms: _340  and  _343
REMARK  144  A    between atoms: _343  and  _344
REMARK  145  A    between atoms: _347  and  _349
REMARK  146  A    between atoms: _349  and  _350
REMARK  147  A    between atoms: _349  and  _352
REMARK  148  A    between atoms: _352  and  _353
REMARK  149  A    between atoms: _358  and  _360
REMARK  150  A    between atoms: _360  and  _361
REMARK  151  A    between atoms: _360  and  _363
REMARK  152  A    between atoms: _363  and  _364
REMARK  153  A    between atoms: _367  and  _369
REMARK  154  A    between atoms: _369  and  _370
REMARK  155  A    between atoms: _372  and  _374
REMARK  156  A    between atoms: _374  and  _375
REMARK  157  A    between atoms: _374  and  _377
REMARK  158  A    between atoms: _377  and  _378
REMARK  159  A    between atoms: _378  and  _379
REMARK  160  A    between atoms: _379  and  _380
REMARK  161  A    between atoms: _380  and  _381
REMARK  162  A    between atoms: _386  and  _387
REMARK  163  A    between atoms: _392  and  _394
REMARK  164  A    between atoms: _394  and  _395
REMARK  165  A    between atoms: _398  and  _400
REMARK  166  A    between atoms: _400  and  _401
REMARK  167  A    between atoms: _400  and  _403
REMARK  168  A    between atoms: _405  and  _407
REMARK  169  A    between atoms: _407  and  _408
REMARK  170  A    between atoms: _411  and  _413
REMARK  171  A    between atoms: _413  and  _414
REMARK  172  A    between atoms: _413  and  _416
REMARK  173  A    between atoms: _416  and  _417
REMARK  174  A    between atoms: _419  and  _421
REMARK  175  A    between atoms: _421  and  _422
REMARK  176  A    between atoms: _421  and  _424
REMARK  177  A    between atoms: _424  and  _425
REMARK  178  A    between atoms: _428  and  _430
REMARK  179  A    between atoms: _430  and  _431
REMARK  180  A    between atoms: _430  and  _433
REMARK  181  A    between atoms: _433  and  _434
REMARK  182  A    between atoms: _437  and  _439
REMARK  183  A    between atoms: _439  and  _440
REMARK  184  A    between atoms: _439  and  _442
REMARK  185  A    between atoms: _442  and  _443
REMARK  186  A    between atoms: _443  and  _444
REMARK  187  A    between atoms: _449  and  _451
REMARK  188  A    between atoms: _451  and  _452
REMARK  189  A    between atoms: _451  and  _454
REMARK  190  A    between atoms: _454  and  _455
REMARK  191  A    between atoms: _461  and  _463
REMARK  192  A    between atoms: _463  and  _464
REMARK  193  A    between atoms: _463  and  _466
REMARK  194  A    between atoms: _466  and  _467
REMARK  195  A    between atoms: _467  and  _468
REMARK  196  A    between atoms: _468  and  _469
REMARK  197  A    between atoms: _469  and  _470
REMARK  198  A    between atoms: _474  and  _476
REMARK  199  A    between atoms: _476  and  _477
REMARK  200  A    between atoms: _476  and  _479
REMARK  201  A    between atoms: _479  and  _480
REMARK  202  A    between atoms: _485  and  _487
REMARK  203  A    between atoms: _487  and  _488
REMARK  204  A    between atoms: _487  and  _490
REMARK  205  A    between atoms: _490  and  _491
REMARK  206  A    between atoms: _497  and  _499
REMARK  207  A    between atoms: _499  and  _500
REMARK  208  A    between atoms: _499  and  _502
REMARK  209  A    between atoms: _502  and  _503
REMARK  210  A    between atoms: _503  and  _504
REMARK  211  A    between atoms: _507  and  _509
REMARK  212  A    between atoms: _509  and  _510
REMARK  213  A    between atoms: _509  and  _512
REMARK  214  A    between atoms: _512  and  _513
REMARK  215  A    between atoms: _513  and  _514
REMARK  216  A    between atoms: _519  and  _521
REMARK  217  A    between atoms: _521  and  _522
REMARK  218  A    between atoms: _521  and  _524
REMARK  219  A    between atoms: _524  and  _525
REMARK  220  A    between atoms: _525  and  _526
REMARK  221  A    between atoms: _526  and  _527
REMARK  222  A    between atoms: _536  and  _538
REMARK  223  A    between atoms: _538  and  _539
REMARK                            x       y       z     vdW  Elec       q    Type
REMARK                         _______ _______ _______ _____ _____    ______ ____
ROOT
ATOM      1  O   HOH     1      29.597  -8.824  13.260  0.00  0.00    +0.000 OA
ENDROOT
TORSDOF 0
