REMARK  Name = ../refined-set-2016/2buv/2buv_pocket.pdb
REMARK  131 active torsions:
REMARK  status: ('A' for Active; 'I' for Inactive)
REMARK    1  A    between atoms: _1  and  _3
REMARK    2  A    between atoms: _3  and  _4
REMARK    3  A    between atoms: _3  and  _6
REMARK    4  A    between atoms: _6  and  _7
REMARK    5  A    between atoms: _7  and  _8
REMARK    6  A    between atoms: _13  and  _15
REMARK    7  A    between atoms: _15  and  _16
REMARK    8  A    between atoms: _15  and  _18
REMARK    9  A    between atoms: _18  and  _19
REMARK   10  A    between atoms: _22  and  _24
REMARK   11  A    between atoms: _24  and  _25
REMARK   12  A    between atoms: _27  and  _29
REMARK   13  A    between atoms: _29  and  _30
REMARK   14  A    between atoms: _33  and  _34
REMARK   15  A    between atoms: _39  and  _41
REMARK   16  A    between atoms: _41  and  _42
REMARK   17  A    between atoms: _41  and  _44
REMARK   18  A    between atoms: _44  and  _45
REMARK   19  A    between atoms: _50  and  _51
REMARK   20  A    between atoms: _53  and  _55
REMARK   21  A    between atoms: _55  and  _56
REMARK   22  A    between atoms: _55  and  _58
REMARK   23  A    between atoms: _61  and  _63
REMARK   24  A    between atoms: _63  and  _64
REMARK   25  A    between atoms: _63  and  _66
REMARK   26  A    between atoms: _66  and  _67
REMARK   27  A    between atoms: _70  and  _72
REMARK   28  A    between atoms: _72  and  _73
REMARK   29  A    between atoms: _72  and  _75
REMARK   30  A    between atoms: _75  and  _76
REMARK   31  A    between atoms: _79  and  _81
REMARK   32  A    between atoms: _81  and  _82
REMARK   33  A    between atoms: _81  and  _84
REMARK   34  A    between atoms: _84  and  _85
REMARK   35  A    between atoms: _85  and  _86
REMARK   36  A    between atoms: _86  and  _87
REMARK   37  A    between atoms: _96  and  _98
REMARK   38  A    between atoms: _98  and  _99
REMARK   39  A    between atoms: _101  and  _103
REMARK   40  A    between atoms: _103  and  _104
REMARK   41  A    between atoms: _103  and  _106
REMARK   42  A    between atoms: _106  and  _107
REMARK   43  A    between atoms: _112  and  _113
REMARK   44  A    between atoms: _115  and  _117
REMARK   45  A    between atoms: _117  and  _118
REMARK   46  A    between atoms: _117  and  _120
REMARK   47  A    between atoms: _120  and  _121
REMARK   48  A    between atoms: _124  and  _126
REMARK   49  A    between atoms: _126  and  _127
REMARK   50  A    between atoms: _126  and  _129
REMARK   51  A    between atoms: _129  and  _130
REMARK   52  A    between atoms: _140  and  _142
REMARK   53  A    between atoms: _142  and  _143
REMARK   54  A    between atoms: _142  and  _145
REMARK   55  A    between atoms: _145  and  _146
REMARK   56  A    between atoms: _146  and  _147
REMARK   57  A    between atoms: _152  and  _154
REMARK   58  A    between atoms: _154  and  _155
REMARK   59  A    between atoms: _158  and  _160
REMARK   60  A    between atoms: _160  and  _161
REMARK   61  A    between atoms: _163  and  _165
REMARK   62  A    between atoms: _165  and  _166
REMARK   63  A    between atoms: _165  and  _168
REMARK   64  A    between atoms: _168  and  _169
REMARK   65  A    between atoms: _174  and  _175
REMARK   66  A    between atoms: _177  and  _179
REMARK   67  A    between atoms: _179  and  _180
REMARK   68  A    between atoms: _179  and  _182
REMARK   69  A    between atoms: _182  and  _183
REMARK   70  A    between atoms: _188  and  _190
REMARK   71  A    between atoms: _190  and  _191
REMARK   72  A    between atoms: _190  and  _193
REMARK   73  A    between atoms: _193  and  _194
REMARK   74  A    between atoms: _198  and  _199
REMARK   75  A    between atoms: _204  and  _206
REMARK   76  A    between atoms: _206  and  _207
REMARK   77  A    between atoms: _206  and  _209
REMARK   78  A    between atoms: _209  and  _210
REMARK   79  A    between atoms: _215  and  _216
REMARK   80  A    between atoms: _219  and  _220
REMARK   81  A    between atoms: _225  and  _227
REMARK   82  A    between atoms: _227  and  _228
REMARK   83  A    between atoms: _227  and  _230
REMARK   84  A    between atoms: _230  and  _231
REMARK   85  A    between atoms: _241  and  _243
REMARK   86  A    between atoms: _243  and  _244
REMARK   87  A    between atoms: _243  and  _246
REMARK   88  A    between atoms: _246  and  _247
REMARK   89  A    between atoms: _247  and  _248
REMARK   90  A    between atoms: _248  and  _249
REMARK   91  A    between atoms: _258  and  _260
REMARK   92  A    between atoms: _260  and  _261
REMARK   93  A    between atoms: _260  and  _263
REMARK   94  A    between atoms: _263  and  _264
REMARK   95  A    between atoms: _269  and  _271
REMARK   96  A    between atoms: _271  and  _272
REMARK   97  A    between atoms: _271  and  _274
REMARK   98  A    between atoms: _274  and  _275
REMARK   99  A    between atoms: _275  and  _276
REMARK  100  A    between atoms: _279  and  _281
REMARK  101  A    between atoms: _281  and  _282
REMARK  102  A    between atoms: _281  and  _284
REMARK  103  A    between atoms: _284  and  _285
REMARK  104  A    between atoms: _295  and  _297
REMARK  105  A    between atoms: _297  and  _298
REMARK  106  A    between atoms: _297  and  _300
REMARK  107  A    between atoms: _300  and  _301
REMARK  108  A    between atoms: _304  and  _305
REMARK  109  A    between atoms: _310  and  _312
REMARK  110  A    between atoms: _312  and  _313
REMARK  111  A    between atoms: _316  and  _318
REMARK  112  A    between atoms: _329  and  _332
REMARK  113  A    between atoms: _332  and  _333
REMARK  114  A    between atoms: _338  and  _339
REMARK  115  A    between atoms: _347  and  _349
REMARK  116  A    between atoms: _349  and  _350
REMARK  117  A    between atoms: _349  and  _352
REMARK  118  A    between atoms: _352  and  _353
REMARK  119  A    between atoms: _353  and  _354
REMARK  120  A    between atoms: _359  and  _361
REMARK  121  A    between atoms: _361  and  _362
REMARK  122  A    between atoms: _361  and  _364
REMARK  123  A    between atoms: _364  and  _365
REMARK  124  A    between atoms: _370  and  _371
REMARK  125  A    between atoms: _373  and  _375
REMARK  126  A    between atoms: _375  and  _376
REMARK  127  A    between atoms: _375  and  _378
REMARK  128  A    between atoms: _380  and  _382
REMARK  129  A    between atoms: _382  and  _383
REMARK  130  A    between atoms: _382  and  _385
REMARK  131  A    between atoms: _385  and  _386
REMARK                            x       y       z     vdW  Elec       q    Type
REMARK                         _______ _______ _______ _____ _____    ______ ____
ROOT
ATOM      1  C   GLY A   4      10.745 -19.195  42.974  0.00  0.00    +0.246 C 
ATOM      2  N   PRO A   5      11.556 -18.390  43.668  0.00  0.00    -0.272 N 
ATOM      3  CA  PRO A   5      11.962 -18.694  45.036  0.00  0.00    +0.152 C 
ATOM      4  CB  PRO A   5      13.154 -17.761  45.242  0.00  0.00    +0.031 C 
ATOM      5  CG  PRO A   5      12.654 -16.421  44.507  0.00  0.00    +0.024 C 
ATOM      6  CD  PRO A   5      12.110 -17.089  43.174  0.00  0.00    +0.094 C 
ATOM      7  O   GLY A   4      10.193 -20.186  43.501  0.00  0.00    -0.273 OA
ENDROOT
BRANCH   3   8
ATOM      8  C   PRO A   5      10.946 -18.563  46.160  0.00  0.00    +0.241 C 
ATOM      9  O   PRO A   5      11.223 -19.013  47.291  0.00  0.00    -0.273 OA
ATOM     10  N   TYR A   6       9.803 -17.914  45.906  0.00  0.00    -0.297 N 
ATOM     11  H   TYR A   6       9.643 -17.538  44.950  0.00  0.00    +0.150 HD
BRANCH  10  12
ATOM     12  CA  TYR A   6       8.759 -17.712  46.935  0.00  0.00    +0.153 C 
BRANCH  12  13
ATOM     13  C   TYR A   6       7.541 -18.602  46.686  0.00  0.00    +0.241 C 
ATOM     14  O   TYR A   6       6.439 -18.327  47.181  0.00  0.00    -0.273 OA
ATOM     15  N   VAL A   7       7.740 -19.662  45.895  0.00  0.00    -0.298 N 
ATOM     16  H   VAL A   7       8.685 -19.822  45.491  0.00  0.00    +0.150 HD
BRANCH  15  17
ATOM     17  CA  VAL A   7       6.688 -20.580  45.590  0.00  0.00    +0.137 C 
BRANCH  17  18
ATOM     18  CB  VAL A   7       7.245 -21.728  44.705  0.00  0.00    +0.026 C 
ATOM     19  CG2 VAL A   7       8.381 -22.450  45.536  0.00  0.00    +0.002 C 
ATOM     20  CG1 VAL A   7       6.140 -22.710  44.331  0.00  0.00    +0.002 C 
ENDBRANCH  17  18
BRANCH  17  21
ATOM     21  C   VAL A   7       6.075 -21.092  46.928  0.00  0.00    +0.227 C 
ATOM     22  O   VAL A   7       4.906 -21.430  46.938  0.00  0.00    -0.286 OA
ENDBRANCH  17  21
ENDBRANCH  15  17
ENDBRANCH  12  13
BRANCH  12  23
ATOM     23  CB  TYR A   6       8.356 -16.204  47.033  0.00  0.00    +0.055 C 
BRANCH  23  24
ATOM     24  CG  TYR A   6       9.563 -15.257  47.011  0.00  0.00    -0.020 A 
ATOM     25  CD2 TYR A   6      10.639 -15.423  47.926  0.00  0.00    -0.001 A 
ATOM     26  CE2 TYR A   6      11.759 -14.578  47.891  0.00  0.00    +0.036 A 
ATOM     27  CZ  TYR A   6      11.841 -13.572  46.964  0.00  0.00    +0.134 A 
ATOM     28  CE1 TYR A   6      10.789 -13.386  46.035  0.00  0.00    +0.036 A 
ATOM     29  CD1 TYR A   6       9.664 -14.234  46.073  0.00  0.00    -0.001 A 
BRANCH  27  30
ATOM     30  OH  TYR A   6      12.977 -12.767  46.925  0.00  0.00    -0.506 OA
ATOM     31  HH  TYR A   6      13.422 -12.868  46.046  0.00  0.00    +0.292 HD
ENDBRANCH  27  30
ENDBRANCH  23  24
ENDBRANCH  12  23
ENDBRANCH  10  12
ENDBRANCH   3   8
BRANCH   1  32
ATOM     32  CA  GLY A   4      10.420 -18.759  41.538  0.00  0.00    +0.176 C 
BRANCH  32  35
ATOM     33  C   GLY A   3       8.345 -19.901  41.053  0.00  0.00    +0.243 C 
ATOM     34  O   GLY A   3       7.746 -19.165  41.851  0.00  0.00    -0.273 OA
ATOM     35  N   GLY A   4       9.660 -19.794  40.853  0.00  0.00    -0.295 N 
ATOM     36  H   GLY A   4      10.142 -20.451  40.207  0.00  0.00    +0.150 HD
BRANCH  33  37
ATOM     37  CA  GLY A   3       7.607 -20.972  40.280  0.00  0.00    +0.176 C 
BRANCH  37  39
ATOM     38  C   THR A   2       8.331 -20.456  38.035  0.00  0.00    +0.243 C 
ATOM     39  N   GLY A   3       8.357 -21.282  39.075  0.00  0.00    -0.295 N 
ATOM     40  H   GLY A   3       8.918 -22.156  39.026  0.00  0.00    +0.150 HD
ATOM     41  O   THR A   2       7.685 -19.394  38.037  0.00  0.00    -0.273 OA
BRANCH  38  42
ATOM     42  CA  THR A   2       9.215 -20.855  36.875  0.00  0.00    +0.176 C 
BRANCH  42  45
ATOM     43  C   GLN A   1       7.401 -20.690  35.274  0.00  0.00    +0.238 C 
ATOM     44  O   GLN A   1       6.696 -21.507  35.928  0.00  0.00    -0.274 OA
ATOM     45  N   THR A   2       8.626 -20.360  35.627  0.00  0.00    -0.295 N 
ATOM     46  H   THR A   2       9.185 -19.737  35.010  0.00  0.00    +0.150 HD
BRANCH  43  47
ATOM     47  CA  GLN A   1       6.935 -20.090  33.941  0.00  0.00    +0.145 C 
BRANCH  47  48
ATOM     48  N   GLN A   1       5.973 -21.067  33.471  0.00  0.00    -0.238 NA
ATOM     49  H   GLN A   1       5.398 -21.577  34.172  0.00  0.00    +0.142 HD
ENDBRANCH  47  48
BRANCH  47  50
ATOM     50  CB  GLN A   1       6.281 -18.728  34.171  0.00  0.00    +0.036 C 
BRANCH  50  51
ATOM     51  CG  GLN A   1       5.741 -18.061  32.909  0.00  0.00    +0.087 C 
BRANCH  51  52
ATOM     52  CD  GLN A   1       6.841 -17.399  32.118  0.00  0.00    +0.219 C 
ATOM     53  NE2 GLN A   1       6.993 -16.111  32.352  0.00  0.00    -0.329 N 
ATOM     54 HE21 GLN A   1       6.351 -15.622  33.008  0.00  0.00    +0.145 HD
ATOM     55 HE22 GLN A   1       7.755 -15.583  31.881  0.00  0.00    +0.145 HD
ATOM     56  OE1 GLN A   1       7.594 -18.046  31.329  0.00  0.00    -0.275 OA
ENDBRANCH  51  52
ENDBRANCH  50  51
ENDBRANCH  47  50
ENDBRANCH  43  47
ENDBRANCH  42  45
BRANCH  42  57
ATOM     57  CB  THR A   2      10.623 -20.220  37.132  0.00  0.00    +0.137 C 
ATOM     58  CG2 THR A   2      10.511 -18.667  37.240  0.00  0.00    +0.034 C 
BRANCH  57  59
ATOM     59  OG1 THR A   2      11.170 -20.741  38.359  0.00  0.00    -0.382 OA
ATOM     60  HG1 THR A   2      11.260 -21.724  38.288  0.00  0.00    +0.210 HD
ENDBRANCH  57  59
ENDBRANCH  42  57
ENDBRANCH  38  42
ENDBRANCH  37  39
ENDBRANCH  33  37
ENDBRANCH  32  35
ENDBRANCH   1  32
TORSDOF 22
REMARK  Name = ../refined-set-2016/2buv/2buv_pocket.pdb
REMARK  131 active torsions:
REMARK  status: ('A' for Active; 'I' for Inactive)
REMARK    1  A    between atoms: _1  and  _3
REMARK    2  A    between atoms: _3  and  _4
REMARK    3  A    between atoms: _3  and  _6
REMARK    4  A    between atoms: _6  and  _7
REMARK    5  A    between atoms: _7  and  _8
REMARK    6  A    between atoms: _13  and  _15
REMARK    7  A    between atoms: _15  and  _16
REMARK    8  A    between atoms: _15  and  _18
REMARK    9  A    between atoms: _18  and  _19
REMARK   10  A    between atoms: _22  and  _24
REMARK   11  A    between atoms: _24  and  _25
REMARK   12  A    between atoms: _27  and  _29
REMARK   13  A    between atoms: _29  and  _30
REMARK   14  A    between atoms: _33  and  _34
REMARK   15  A    between atoms: _39  and  _41
REMARK   16  A    between atoms: _41  and  _42
REMARK   17  A    between atoms: _41  and  _44
REMARK   18  A    between atoms: _44  and  _45
REMARK   19  A    between atoms: _50  and  _51
REMARK   20  A    between atoms: _53  and  _55
REMARK   21  A    between atoms: _55  and  _56
REMARK   22  A    between atoms: _55  and  _58
REMARK   23  A    between atoms: _61  and  _63
REMARK   24  A    between atoms: _63  and  _64
REMARK   25  A    between atoms: _63  and  _66
REMARK   26  A    between atoms: _66  and  _67
REMARK   27  A    between atoms: _70  and  _72
REMARK   28  A    between atoms: _72  and  _73
REMARK   29  A    between atoms: _72  and  _75
REMARK   30  A    between atoms: _75  and  _76
REMARK   31  A    between atoms: _79  and  _81
REMARK   32  A    between atoms: _81  and  _82
REMARK   33  A    between atoms: _81  and  _84
REMARK   34  A    between atoms: _84  and  _85
REMARK   35  A    between atoms: _85  and  _86
REMARK   36  A    between atoms: _86  and  _87
REMARK   37  A    between atoms: _96  and  _98
REMARK   38  A    between atoms: _98  and  _99
REMARK   39  A    between atoms: _101  and  _103
REMARK   40  A    between atoms: _103  and  _104
REMARK   41  A    between atoms: _103  and  _106
REMARK   42  A    between atoms: _106  and  _107
REMARK   43  A    between atoms: _112  and  _113
REMARK   44  A    between atoms: _115  and  _117
REMARK   45  A    between atoms: _117  and  _118
REMARK   46  A    between atoms: _117  and  _120
REMARK   47  A    between atoms: _120  and  _121
REMARK   48  A    between atoms: _124  and  _126
REMARK   49  A    between atoms: _126  and  _127
REMARK   50  A    between atoms: _126  and  _129
REMARK   51  A    between atoms: _129  and  _130
REMARK   52  A    between atoms: _140  and  _142
REMARK   53  A    between atoms: _142  and  _143
REMARK   54  A    between atoms: _142  and  _145
REMARK   55  A    between atoms: _145  and  _146
REMARK   56  A    between atoms: _146  and  _147
REMARK   57  A    between atoms: _152  and  _154
REMARK   58  A    between atoms: _154  and  _155
REMARK   59  A    between atoms: _158  and  _160
REMARK   60  A    between atoms: _160  and  _161
REMARK   61  A    between atoms: _163  and  _165
REMARK   62  A    between atoms: _165  and  _166
REMARK   63  A    between atoms: _165  and  _168
REMARK   64  A    between atoms: _168  and  _169
REMARK   65  A    between atoms: _174  and  _175
REMARK   66  A    between atoms: _177  and  _179
REMARK   67  A    between atoms: _179  and  _180
REMARK   68  A    between atoms: _179  and  _182
REMARK   69  A    between atoms: _182  and  _183
REMARK   70  A    between atoms: _188  and  _190
REMARK   71  A    between atoms: _190  and  _191
REMARK   72  A    between atoms: _190  and  _193
REMARK   73  A    between atoms: _193  and  _194
REMARK   74  A    between atoms: _198  and  _199
REMARK   75  A    between atoms: _204  and  _206
REMARK   76  A    between atoms: _206  and  _207
REMARK   77  A    between atoms: _206  and  _209
REMARK   78  A    between atoms: _209  and  _210
REMARK   79  A    between atoms: _215  and  _216
REMARK   80  A    between atoms: _219  and  _220
REMARK   81  A    between atoms: _225  and  _227
REMARK   82  A    between atoms: _227  and  _228
REMARK   83  A    between atoms: _227  and  _230
REMARK   84  A    between atoms: _230  and  _231
REMARK   85  A    between atoms: _241  and  _243
REMARK   86  A    between atoms: _243  and  _244
REMARK   87  A    between atoms: _243  and  _246
REMARK   88  A    between atoms: _246  and  _247
REMARK   89  A    between atoms: _247  and  _248
REMARK   90  A    between atoms: _248  and  _249
REMARK   91  A    between atoms: _258  and  _260
REMARK   92  A    between atoms: _260  and  _261
REMARK   93  A    between atoms: _260  and  _263
REMARK   94  A    between atoms: _263  and  _264
REMARK   95  A    between atoms: _269  and  _271
REMARK   96  A    between atoms: _271  and  _272
REMARK   97  A    between atoms: _271  and  _274
REMARK   98  A    between atoms: _274  and  _275
REMARK   99  A    between atoms: _275  and  _276
REMARK  100  A    between atoms: _279  and  _281
REMARK  101  A    between atoms: _281  and  _282
REMARK  102  A    between atoms: _281  and  _284
REMARK  103  A    between atoms: _284  and  _285
REMARK  104  A    between atoms: _295  and  _297
REMARK  105  A    between atoms: _297  and  _298
REMARK  106  A    between atoms: _297  and  _300
REMARK  107  A    between atoms: _300  and  _301
REMARK  108  A    between atoms: _304  and  _305
REMARK  109  A    between atoms: _310  and  _312
REMARK  110  A    between atoms: _312  and  _313
REMARK  111  A    between atoms: _316  and  _318
REMARK  112  A    between atoms: _329  and  _332
REMARK  113  A    between atoms: _332  and  _333
REMARK  114  A    between atoms: _338  and  _339
REMARK  115  A    between atoms: _347  and  _349
REMARK  116  A    between atoms: _349  and  _350
REMARK  117  A    between atoms: _349  and  _352
REMARK  118  A    between atoms: _352  and  _353
REMARK  119  A    between atoms: _353  and  _354
REMARK  120  A    between atoms: _359  and  _361
REMARK  121  A    between atoms: _361  and  _362
REMARK  122  A    between atoms: _361  and  _364
REMARK  123  A    between atoms: _364  and  _365
REMARK  124  A    between atoms: _370  and  _371
REMARK  125  A    between atoms: _373  and  _375
REMARK  126  A    between atoms: _375  and  _376
REMARK  127  A    between atoms: _375  and  _378
REMARK  128  A    between atoms: _380  and  _382
REMARK  129  A    between atoms: _382  and  _383
REMARK  130  A    between atoms: _382  and  _385
REMARK  131  A    between atoms: _385  and  _386
REMARK                            x       y       z     vdW  Elec       q    Type
REMARK                         _______ _______ _______ _____ _____    ______ ____
ROOT
ATOM      1  CA  ILE A   1       3.942 -18.581  49.901  0.00  0.00    +0.133 C 
ENDROOT
BRANCH   1   2
ATOM      2  N   ILE A   1       5.041 -19.444  49.491  0.00  0.00    -0.239 NA
ATOM      3  H   ILE A   1       5.826 -19.056  48.929  0.00  0.00    +0.142 HD
ENDBRANCH   1   2
BRANCH   1   4
ATOM      4  C   ILE A   1       2.613 -19.180  49.434  0.00  0.00    +0.224 C 
ATOM      5  O   ILE A   1       1.663 -19.284  50.213  0.00  0.00    -0.287 OA
ENDBRANCH   1   4
BRANCH   1   6
ATOM      6  CB  ILE A   1       4.032 -17.155  49.308  0.00  0.00    +0.023 C 
ATOM      7  CG2 ILE A   1       2.733 -16.360  49.700  0.00  0.00    +0.002 C 
BRANCH   6   8
ATOM      8  CG1 ILE A   1       5.277 -16.435  49.858  0.00  0.00    +0.002 C 
ATOM      9  CD1 ILE A   1       5.450 -14.969  49.398  0.00  0.00    +0.000 C 
ENDBRANCH   6   8
ENDBRANCH   1   6
TORSDOF 4
REMARK  Name = ../refined-set-2016/2buv/2buv_pocket.pdb
REMARK  131 active torsions:
REMARK  status: ('A' for Active; 'I' for Inactive)
REMARK    1  A    between atoms: _1  and  _3
REMARK    2  A    between atoms: _3  and  _4
REMARK    3  A    between atoms: _3  and  _6
REMARK    4  A    between atoms: _6  and  _7
REMARK    5  A    between atoms: _7  and  _8
REMARK    6  A    between atoms: _13  and  _15
REMARK    7  A    between atoms: _15  and  _16
REMARK    8  A    between atoms: _15  and  _18
REMARK    9  A    between atoms: _18  and  _19
REMARK   10  A    between atoms: _22  and  _24
REMARK   11  A    between atoms: _24  and  _25
REMARK   12  A    between atoms: _27  and  _29
REMARK   13  A    between atoms: _29  and  _30
REMARK   14  A    between atoms: _33  and  _34
REMARK   15  A    between atoms: _39  and  _41
REMARK   16  A    between atoms: _41  and  _42
REMARK   17  A    between atoms: _41  and  _44
REMARK   18  A    between atoms: _44  and  _45
REMARK   19  A    between atoms: _50  and  _51
REMARK   20  A    between atoms: _53  and  _55
REMARK   21  A    between atoms: _55  and  _56
REMARK   22  A    between atoms: _55  and  _58
REMARK   23  A    between atoms: _61  and  _63
REMARK   24  A    between atoms: _63  and  _64
REMARK   25  A    between atoms: _63  and  _66
REMARK   26  A    between atoms: _66  and  _67
REMARK   27  A    between atoms: _70  and  _72
REMARK   28  A    between atoms: _72  and  _73
REMARK   29  A    between atoms: _72  and  _75
REMARK   30  A    between atoms: _75  and  _76
REMARK   31  A    between atoms: _79  and  _81
REMARK   32  A    between atoms: _81  and  _82
REMARK   33  A    between atoms: _81  and  _84
REMARK   34  A    between atoms: _84  and  _85
REMARK   35  A    between atoms: _85  and  _86
REMARK   36  A    between atoms: _86  and  _87
REMARK   37  A    between atoms: _96  and  _98
REMARK   38  A    between atoms: _98  and  _99
REMARK   39  A    between atoms: _101  and  _103
REMARK   40  A    between atoms: _103  and  _104
REMARK   41  A    between atoms: _103  and  _106
REMARK   42  A    between atoms: _106  and  _107
REMARK   43  A    between atoms: _112  and  _113
REMARK   44  A    between atoms: _115  and  _117
REMARK   45  A    between atoms: _117  and  _118
REMARK   46  A    between atoms: _117  and  _120
REMARK   47  A    between atoms: _120  and  _121
REMARK   48  A    between atoms: _124  and  _126
REMARK   49  A    between atoms: _126  and  _127
REMARK   50  A    between atoms: _126  and  _129
REMARK   51  A    between atoms: _129  and  _130
REMARK   52  A    between atoms: _140  and  _142
REMARK   53  A    between atoms: _142  and  _143
REMARK   54  A    between atoms: _142  and  _145
REMARK   55  A    between atoms: _145  and  _146
REMARK   56  A    between atoms: _146  and  _147
REMARK   57  A    between atoms: _152  and  _154
REMARK   58  A    between atoms: _154  and  _155
REMARK   59  A    between atoms: _158  and  _160
REMARK   60  A    between atoms: _160  and  _161
REMARK   61  A    between atoms: _163  and  _165
REMARK   62  A    between atoms: _165  and  _166
REMARK   63  A    between atoms: _165  and  _168
REMARK   64  A    between atoms: _168  and  _169
REMARK   65  A    between atoms: _174  and  _175
REMARK   66  A    between atoms: _177  and  _179
REMARK   67  A    between atoms: _179  and  _180
REMARK   68  A    between atoms: _179  and  _182
REMARK   69  A    between atoms: _182  and  _183
REMARK   70  A    between atoms: _188  and  _190
REMARK   71  A    between atoms: _190  and  _191
REMARK   72  A    between atoms: _190  and  _193
REMARK   73  A    between atoms: _193  and  _194
REMARK   74  A    between atoms: _198  and  _199
REMARK   75  A    between atoms: _204  and  _206
REMARK   76  A    between atoms: _206  and  _207
REMARK   77  A    between atoms: _206  and  _209
REMARK   78  A    between atoms: _209  and  _210
REMARK   79  A    between atoms: _215  and  _216
REMARK   80  A    between atoms: _219  and  _220
REMARK   81  A    between atoms: _225  and  _227
REMARK   82  A    between atoms: _227  and  _228
REMARK   83  A    between atoms: _227  and  _230
REMARK   84  A    between atoms: _230  and  _231
REMARK   85  A    between atoms: _241  and  _243
REMARK   86  A    between atoms: _243  and  _244
REMARK   87  A    between atoms: _243  and  _246
REMARK   88  A    between atoms: _246  and  _247
REMARK   89  A    between atoms: _247  and  _248
REMARK   90  A    between atoms: _248  and  _249
REMARK   91  A    between atoms: _258  and  _260
REMARK   92  A    between atoms: _260  and  _261
REMARK   93  A    between atoms: _260  and  _263
REMARK   94  A    between atoms: _263  and  _264
REMARK   95  A    between atoms: _269  and  _271
REMARK   96  A    between atoms: _271  and  _272
REMARK   97  A    between atoms: _271  and  _274
REMARK   98  A    between atoms: _274  and  _275
REMARK   99  A    between atoms: _275  and  _276
REMARK  100  A    between atoms: _279  and  _281
REMARK  101  A    between atoms: _281  and  _282
REMARK  102  A    between atoms: _281  and  _284
REMARK  103  A    between atoms: _284  and  _285
REMARK  104  A    between atoms: _295  and  _297
REMARK  105  A    between atoms: _297  and  _298
REMARK  106  A    between atoms: _297  and  _300
REMARK  107  A    between atoms: _300  and  _301
REMARK  108  A    between atoms: _304  and  _305
REMARK  109  A    between atoms: _310  and  _312
REMARK  110  A    between atoms: _312  and  _313
REMARK  111  A    between atoms: _316  and  _318
REMARK  112  A    between atoms: _329  and  _332
REMARK  113  A    between atoms: _332  and  _333
REMARK  114  A    between atoms: _338  and  _339
REMARK  115  A    between atoms: _347  and  _349
REMARK  116  A    between atoms: _349  and  _350
REMARK  117  A    between atoms: _349  and  _352
REMARK  118  A    between atoms: _352  and  _353
REMARK  119  A    between atoms: _353  and  _354
REMARK  120  A    between atoms: _359  and  _361
REMARK  121  A    between atoms: _361  and  _362
REMARK  122  A    between atoms: _361  and  _364
REMARK  123  A    between atoms: _364  and  _365
REMARK  124  A    between atoms: _370  and  _371
REMARK  125  A    between atoms: _373  and  _375
REMARK  126  A    between atoms: _375  and  _376
REMARK  127  A    between atoms: _375  and  _378
REMARK  128  A    between atoms: _380  and  _382
REMARK  129  A    between atoms: _382  and  _383
REMARK  130  A    between atoms: _382  and  _385
REMARK  131  A    between atoms: _385  and  _386
REMARK                            x       y       z     vdW  Elec       q    Type
REMARK                         _______ _______ _______ _____ _____    ______ ____
ROOT
ATOM      1  CA  ASP A   1      14.336 -23.579  47.570  0.00  0.00    +0.144 C 
ENDROOT
BRANCH   1   2
ATOM      2  N   ASP A   1      15.633 -24.231  47.754  0.00  0.00    -0.239 NA
ATOM      3  H   ASP A   1      16.161 -24.587  46.932  0.00  0.00    +0.142 HD
ENDBRANCH   1   2
BRANCH   1   4
ATOM      4  C   ASP A   1      13.383 -24.410  46.677  0.00  0.00    +0.225 C 
ATOM      5  O   ASP A   1      12.362 -23.908  46.182  0.00  0.00    -0.287 OA
ENDBRANCH   1   4
BRANCH   1   6
ATOM      6  CB  ASP A   1      14.519 -22.164  46.980  0.00  0.00    +0.139 C 
BRANCH   6   7
ATOM      7  CG  ASP A   1      15.424 -22.148  45.741  0.00  0.00    +0.367 C 
ATOM      8  OD2 ASP A   1      15.798 -21.043  45.298  0.00  0.00    -0.246 OA
ATOM      9  OD1 ASP A   1      15.754 -23.211  45.161  0.00  0.00    -0.246 OA
ENDBRANCH   6   7
ENDBRANCH   1   6
TORSDOF 4
REMARK  Name = ../refined-set-2016/2buv/2buv_pocket.pdb
REMARK  131 active torsions:
REMARK  status: ('A' for Active; 'I' for Inactive)
REMARK    1  A    between atoms: _1  and  _3
REMARK    2  A    between atoms: _3  and  _4
REMARK    3  A    between atoms: _3  and  _6
REMARK    4  A    between atoms: _6  and  _7
REMARK    5  A    between atoms: _7  and  _8
REMARK    6  A    between atoms: _13  and  _15
REMARK    7  A    between atoms: _15  and  _16
REMARK    8  A    between atoms: _15  and  _18
REMARK    9  A    between atoms: _18  and  _19
REMARK   10  A    between atoms: _22  and  _24
REMARK   11  A    between atoms: _24  and  _25
REMARK   12  A    between atoms: _27  and  _29
REMARK   13  A    between atoms: _29  and  _30
REMARK   14  A    between atoms: _33  and  _34
REMARK   15  A    between atoms: _39  and  _41
REMARK   16  A    between atoms: _41  and  _42
REMARK   17  A    between atoms: _41  and  _44
REMARK   18  A    between atoms: _44  and  _45
REMARK   19  A    between atoms: _50  and  _51
REMARK   20  A    between atoms: _53  and  _55
REMARK   21  A    between atoms: _55  and  _56
REMARK   22  A    between atoms: _55  and  _58
REMARK   23  A    between atoms: _61  and  _63
REMARK   24  A    between atoms: _63  and  _64
REMARK   25  A    between atoms: _63  and  _66
REMARK   26  A    between atoms: _66  and  _67
REMARK   27  A    between atoms: _70  and  _72
REMARK   28  A    between atoms: _72  and  _73
REMARK   29  A    between atoms: _72  and  _75
REMARK   30  A    between atoms: _75  and  _76
REMARK   31  A    between atoms: _79  and  _81
REMARK   32  A    between atoms: _81  and  _82
REMARK   33  A    between atoms: _81  and  _84
REMARK   34  A    between atoms: _84  and  _85
REMARK   35  A    between atoms: _85  and  _86
REMARK   36  A    between atoms: _86  and  _87
REMARK   37  A    between atoms: _96  and  _98
REMARK   38  A    between atoms: _98  and  _99
REMARK   39  A    between atoms: _101  and  _103
REMARK   40  A    between atoms: _103  and  _104
REMARK   41  A    between atoms: _103  and  _106
REMARK   42  A    between atoms: _106  and  _107
REMARK   43  A    between atoms: _112  and  _113
REMARK   44  A    between atoms: _115  and  _117
REMARK   45  A    between atoms: _117  and  _118
REMARK   46  A    between atoms: _117  and  _120
REMARK   47  A    between atoms: _120  and  _121
REMARK   48  A    between atoms: _124  and  _126
REMARK   49  A    between atoms: _126  and  _127
REMARK   50  A    between atoms: _126  and  _129
REMARK   51  A    between atoms: _129  and  _130
REMARK   52  A    between atoms: _140  and  _142
REMARK   53  A    between atoms: _142  and  _143
REMARK   54  A    between atoms: _142  and  _145
REMARK   55  A    between atoms: _145  and  _146
REMARK   56  A    between atoms: _146  and  _147
REMARK   57  A    between atoms: _152  and  _154
REMARK   58  A    between atoms: _154  and  _155
REMARK   59  A    between atoms: _158  and  _160
REMARK   60  A    between atoms: _160  and  _161
REMARK   61  A    between atoms: _163  and  _165
REMARK   62  A    between atoms: _165  and  _166
REMARK   63  A    between atoms: _165  and  _168
REMARK   64  A    between atoms: _168  and  _169
REMARK   65  A    between atoms: _174  and  _175
REMARK   66  A    between atoms: _177  and  _179
REMARK   67  A    between atoms: _179  and  _180
REMARK   68  A    between atoms: _179  and  _182
REMARK   69  A    between atoms: _182  and  _183
REMARK   70  A    between atoms: _188  and  _190
REMARK   71  A    between atoms: _190  and  _191
REMARK   72  A    between atoms: _190  and  _193
REMARK   73  A    between atoms: _193  and  _194
REMARK   74  A    between atoms: _198  and  _199
REMARK   75  A    between atoms: _204  and  _206
REMARK   76  A    between atoms: _206  and  _207
REMARK   77  A    between atoms: _206  and  _209
REMARK   78  A    between atoms: _209  and  _210
REMARK   79  A    between atoms: _215  and  _216
REMARK   80  A    between atoms: _219  and  _220
REMARK   81  A    between atoms: _225  and  _227
REMARK   82  A    between atoms: _227  and  _228
REMARK   83  A    between atoms: _227  and  _230
REMARK   84  A    between atoms: _230  and  _231
REMARK   85  A    between atoms: _241  and  _243
REMARK   86  A    between atoms: _243  and  _244
REMARK   87  A    between atoms: _243  and  _246
REMARK   88  A    between atoms: _246  and  _247
REMARK   89  A    between atoms: _247  and  _248
REMARK   90  A    between atoms: _248  and  _249
REMARK   91  A    between atoms: _258  and  _260
REMARK   92  A    between atoms: _260  and  _261
REMARK   93  A    between atoms: _260  and  _263
REMARK   94  A    between atoms: _263  and  _264
REMARK   95  A    between atoms: _269  and  _271
REMARK   96  A    between atoms: _271  and  _272
REMARK   97  A    between atoms: _271  and  _274
REMARK   98  A    between atoms: _274  and  _275
REMARK   99  A    between atoms: _275  and  _276
REMARK  100  A    between atoms: _279  and  _281
REMARK  101  A    between atoms: _281  and  _282
REMARK  102  A    between atoms: _281  and  _284
REMARK  103  A    between atoms: _284  and  _285
REMARK  104  A    between atoms: _295  and  _297
REMARK  105  A    between atoms: _297  and  _298
REMARK  106  A    between atoms: _297  and  _300
REMARK  107  A    between atoms: _300  and  _301
REMARK  108  A    between atoms: _304  and  _305
REMARK  109  A    between atoms: _310  and  _312
REMARK  110  A    between atoms: _312  and  _313
REMARK  111  A    between atoms: _316  and  _318
REMARK  112  A    between atoms: _329  and  _332
REMARK  113  A    between atoms: _332  and  _333
REMARK  114  A    between atoms: _338  and  _339
REMARK  115  A    between atoms: _347  and  _349
REMARK  116  A    between atoms: _349  and  _350
REMARK  117  A    between atoms: _349  and  _352
REMARK  118  A    between atoms: _352  and  _353
REMARK  119  A    between atoms: _353  and  _354
REMARK  120  A    between atoms: _359  and  _361
REMARK  121  A    between atoms: _361  and  _362
REMARK  122  A    between atoms: _361  and  _364
REMARK  123  A    between atoms: _364  and  _365
REMARK  124  A    between atoms: _370  and  _371
REMARK  125  A    between atoms: _373  and  _375
REMARK  126  A    between atoms: _375  and  _376
REMARK  127  A    between atoms: _375  and  _378
REMARK  128  A    between atoms: _380  and  _382
REMARK  129  A    between atoms: _382  and  _383
REMARK  130  A    between atoms: _382  and  _385
REMARK  131  A    between atoms: _385  and  _386
REMARK                            x       y       z     vdW  Elec       q    Type
REMARK                         _______ _______ _______ _____ _____    ______ ____
ROOT
ATOM      1  CB  ARG A   1      14.331 -20.005  41.880  0.00  0.00    +0.030 C 
ENDROOT
BRANCH   1   2
ATOM      2  CA  ARG A   1      13.601 -20.866  40.817  0.00  0.00    +0.145 C 
BRANCH   2   3
ATOM      3  C   ARG A   1      14.618 -21.524  39.869  0.00  0.00    +0.238 C 
ATOM      4  O   ARG A   1      15.303 -22.512  40.223  0.00  0.00    -0.274 OA
ATOM      5  N   GLY A   2      14.750 -20.971  38.659  0.00  0.00    -0.297 N 
ATOM      6  H   GLY A   2      14.163 -20.151  38.404  0.00  0.00    +0.150 HD
BRANCH   5   7
ATOM      7  CA  GLY A   2      15.697 -21.495  37.699  0.00  0.00    +0.163 C 
BRANCH   7   8
ATOM      8  C   GLY A   2      15.094 -22.597  36.834  0.00  0.00    +0.229 C 
ATOM      9  O   GLY A   2      15.627 -22.906  35.787  0.00  0.00    -0.286 OA
ENDBRANCH   7   8
ENDBRANCH   5   7
ENDBRANCH   2   3
BRANCH   2  10
ATOM     10  N   ARG A   1      12.969 -21.952  41.518  0.00  0.00    -0.238 NA
ATOM     11  H   ARG A   1      12.936 -21.945  42.557  0.00  0.00    +0.142 HD
ENDBRANCH   2  10
ENDBRANCH   1   2
BRANCH   1  12
ATOM     12  CG  ARG A   1      15.413 -19.051  41.334  0.00  0.00    +0.045 C 
BRANCH  12  13
ATOM     13  CD  ARG A   1      16.096 -18.165  42.438  0.00  0.00    +0.174 C 
BRANCH  13  14
ATOM     14  NE  ARG A   1      16.803 -19.033  43.427  0.00  0.00    -0.265 N 
ATOM     15  HE  ARG A   1      16.259 -19.803  43.866  0.00  0.00    +0.259 HD
ATOM     16  CZ  ARG A   1      18.088 -18.894  43.792  0.00  0.00    +0.342 C 
ATOM     17  NH2 ARG A   1      18.623 -19.732  44.689  0.00  0.00    -0.292 N 
ATOM     18 HH21 ARG A   1      18.044 -20.490  45.103  0.00  0.00    +0.255 HD
ATOM     19 HH22 ARG A   1      19.618 -19.625  44.972  0.00  0.00    +0.255 HD
ATOM     20  NH1 ARG A   1      18.864 -17.911  43.269  0.00  0.00    -0.292 N 
ATOM     21 HH11 ARG A   1      19.857 -17.820  43.564  0.00  0.00    +0.255 HD
ATOM     22 HH12 ARG A   1      18.466 -17.249  42.573  0.00  0.00    +0.255 HD
ENDBRANCH  13  14
ENDBRANCH  12  13
ENDBRANCH   1  12
TORSDOF 8
REMARK  Name = ../refined-set-2016/2buv/2buv_pocket.pdb
REMARK  131 active torsions:
REMARK  status: ('A' for Active; 'I' for Inactive)
REMARK    1  A    between atoms: _1  and  _3
REMARK    2  A    between atoms: _3  and  _4
REMARK    3  A    between atoms: _3  and  _6
REMARK    4  A    between atoms: _6  and  _7
REMARK    5  A    between atoms: _7  and  _8
REMARK    6  A    between atoms: _13  and  _15
REMARK    7  A    between atoms: _15  and  _16
REMARK    8  A    between atoms: _15  and  _18
REMARK    9  A    between atoms: _18  and  _19
REMARK   10  A    between atoms: _22  and  _24
REMARK   11  A    between atoms: _24  and  _25
REMARK   12  A    between atoms: _27  and  _29
REMARK   13  A    between atoms: _29  and  _30
REMARK   14  A    between atoms: _33  and  _34
REMARK   15  A    between atoms: _39  and  _41
REMARK   16  A    between atoms: _41  and  _42
REMARK   17  A    between atoms: _41  and  _44
REMARK   18  A    between atoms: _44  and  _45
REMARK   19  A    between atoms: _50  and  _51
REMARK   20  A    between atoms: _53  and  _55
REMARK   21  A    between atoms: _55  and  _56
REMARK   22  A    between atoms: _55  and  _58
REMARK   23  A    between atoms: _61  and  _63
REMARK   24  A    between atoms: _63  and  _64
REMARK   25  A    between atoms: _63  and  _66
REMARK   26  A    between atoms: _66  and  _67
REMARK   27  A    between atoms: _70  and  _72
REMARK   28  A    between atoms: _72  and  _73
REMARK   29  A    between atoms: _72  and  _75
REMARK   30  A    between atoms: _75  and  _76
REMARK   31  A    between atoms: _79  and  _81
REMARK   32  A    between atoms: _81  and  _82
REMARK   33  A    between atoms: _81  and  _84
REMARK   34  A    between atoms: _84  and  _85
REMARK   35  A    between atoms: _85  and  _86
REMARK   36  A    between atoms: _86  and  _87
REMARK   37  A    between atoms: _96  and  _98
REMARK   38  A    between atoms: _98  and  _99
REMARK   39  A    between atoms: _101  and  _103
REMARK   40  A    between atoms: _103  and  _104
REMARK   41  A    between atoms: _103  and  _106
REMARK   42  A    between atoms: _106  and  _107
REMARK   43  A    between atoms: _112  and  _113
REMARK   44  A    between atoms: _115  and  _117
REMARK   45  A    between atoms: _117  and  _118
REMARK   46  A    between atoms: _117  and  _120
REMARK   47  A    between atoms: _120  and  _121
REMARK   48  A    between atoms: _124  and  _126
REMARK   49  A    between atoms: _126  and  _127
REMARK   50  A    between atoms: _126  and  _129
REMARK   51  A    between atoms: _129  and  _130
REMARK   52  A    between atoms: _140  and  _142
REMARK   53  A    between atoms: _142  and  _143
REMARK   54  A    between atoms: _142  and  _145
REMARK   55  A    between atoms: _145  and  _146
REMARK   56  A    between atoms: _146  and  _147
REMARK   57  A    between atoms: _152  and  _154
REMARK   58  A    between atoms: _154  and  _155
REMARK   59  A    between atoms: _158  and  _160
REMARK   60  A    between atoms: _160  and  _161
REMARK   61  A    between atoms: _163  and  _165
REMARK   62  A    between atoms: _165  and  _166
REMARK   63  A    between atoms: _165  and  _168
REMARK   64  A    between atoms: _168  and  _169
REMARK   65  A    between atoms: _174  and  _175
REMARK   66  A    between atoms: _177  and  _179
REMARK   67  A    between atoms: _179  and  _180
REMARK   68  A    between atoms: _179  and  _182
REMARK   69  A    between atoms: _182  and  _183
REMARK   70  A    between atoms: _188  and  _190
REMARK   71  A    between atoms: _190  and  _191
REMARK   72  A    between atoms: _190  and  _193
REMARK   73  A    between atoms: _193  and  _194
REMARK   74  A    between atoms: _198  and  _199
REMARK   75  A    between atoms: _204  and  _206
REMARK   76  A    between atoms: _206  and  _207
REMARK   77  A    between atoms: _206  and  _209
REMARK   78  A    between atoms: _209  and  _210
REMARK   79  A    between atoms: _215  and  _216
REMARK   80  A    between atoms: _219  and  _220
REMARK   81  A    between atoms: _225  and  _227
REMARK   82  A    between atoms: _227  and  _228
REMARK   83  A    between atoms: _227  and  _230
REMARK   84  A    between atoms: _230  and  _231
REMARK   85  A    between atoms: _241  and  _243
REMARK   86  A    between atoms: _243  and  _244
REMARK   87  A    between atoms: _243  and  _246
REMARK   88  A    between atoms: _246  and  _247
REMARK   89  A    between atoms: _247  and  _248
REMARK   90  A    between atoms: _248  and  _249
REMARK   91  A    between atoms: _258  and  _260
REMARK   92  A    between atoms: _260  and  _261
REMARK   93  A    between atoms: _260  and  _263
REMARK   94  A    between atoms: _263  and  _264
REMARK   95  A    between atoms: _269  and  _271
REMARK   96  A    between atoms: _271  and  _272
REMARK   97  A    between atoms: _271  and  _274
REMARK   98  A    between atoms: _274  and  _275
REMARK   99  A    between atoms: _275  and  _276
REMARK  100  A    between atoms: _279  and  _281
REMARK  101  A    between atoms: _281  and  _282
REMARK  102  A    between atoms: _281  and  _284
REMARK  103  A    between atoms: _284  and  _285
REMARK  104  A    between atoms: _295  and  _297
REMARK  105  A    between atoms: _297  and  _298
REMARK  106  A    between atoms: _297  and  _300
REMARK  107  A    between atoms: _300  and  _301
REMARK  108  A    between atoms: _304  and  _305
REMARK  109  A    between atoms: _310  and  _312
REMARK  110  A    between atoms: _312  and  _313
REMARK  111  A    between atoms: _316  and  _318
REMARK  112  A    between atoms: _329  and  _332
REMARK  113  A    between atoms: _332  and  _333
REMARK  114  A    between atoms: _338  and  _339
REMARK  115  A    between atoms: _347  and  _349
REMARK  116  A    between atoms: _349  and  _350
REMARK  117  A    between atoms: _349  and  _352
REMARK  118  A    between atoms: _352  and  _353
REMARK  119  A    between atoms: _353  and  _354
REMARK  120  A    between atoms: _359  and  _361
REMARK  121  A    between atoms: _361  and  _362
REMARK  122  A    between atoms: _361  and  _364
REMARK  123  A    between atoms: _364  and  _365
REMARK  124  A    between atoms: _370  and  _371
REMARK  125  A    between atoms: _373  and  _375
REMARK  126  A    between atoms: _375  and  _376
REMARK  127  A    between atoms: _375  and  _378
REMARK  128  A    between atoms: _380  and  _382
REMARK  129  A    between atoms: _382  and  _383
REMARK  130  A    between atoms: _382  and  _385
REMARK  131  A    between atoms: _385  and  _386
REMARK                            x       y       z     vdW  Elec       q    Type
REMARK                         _______ _______ _______ _____ _____    ______ ____
ROOT
ATOM      1  CG  TYR A   1      15.467 -17.196  34.365  0.00  0.00    -0.020 A 
ATOM      2  CD2 TYR A   1      15.617 -16.400  35.488  0.00  0.00    -0.001 A 
ATOM      3  CE2 TYR A   1      15.073 -16.785  36.723  0.00  0.00    +0.036 A 
ATOM      4  CZ  TYR A   1      14.344 -17.971  36.825  0.00  0.00    +0.134 A 
ATOM      5  CE1 TYR A   1      14.157 -18.760  35.765  0.00  0.00    +0.036 A 
ATOM      6  CD1 TYR A   1      14.741 -18.393  34.508  0.00  0.00    -0.001 A 
ENDROOT
BRANCH   4   7
ATOM      7  OH  TYR A   1      13.814 -18.391  38.018  0.00  0.00    -0.506 OA
ATOM      8  HH  TYR A   1      14.019 -17.725  38.721  0.00  0.00    +0.292 HD
ENDBRANCH   4   7
BRANCH   1   9
ATOM      9  CB  TYR A   1      16.029 -16.756  32.997  0.00  0.00    +0.051 C 
BRANCH   9  10
ATOM     10  CA  TYR A   1      17.365 -16.016  33.114  0.00  0.00    +0.137 C 
BRANCH  10  11
ATOM     11  N   TYR A   1      17.976 -15.861  31.785  0.00  0.00    -0.239 NA
ATOM     12  H   TYR A   1      18.029 -16.688  31.157  0.00  0.00    +0.142 HD
ENDBRANCH  10  11
BRANCH  10  13
ATOM     13  C   TYR A   1      18.478 -16.839  33.799  0.00  0.00    +0.224 C 
ATOM     14  O   TYR A   1      18.537 -18.044  33.691  0.00  0.00    -0.287 OA
ENDBRANCH  10  13
ENDBRANCH   9  10
ENDBRANCH   1   9
TORSDOF 5
REMARK  Name = ../refined-set-2016/2buv/2buv_pocket.pdb
REMARK  131 active torsions:
REMARK  status: ('A' for Active; 'I' for Inactive)
REMARK    1  A    between atoms: _1  and  _3
REMARK    2  A    between atoms: _3  and  _4
REMARK    3  A    between atoms: _3  and  _6
REMARK    4  A    between atoms: _6  and  _7
REMARK    5  A    between atoms: _7  and  _8
REMARK    6  A    between atoms: _13  and  _15
REMARK    7  A    between atoms: _15  and  _16
REMARK    8  A    between atoms: _15  and  _18
REMARK    9  A    between atoms: _18  and  _19
REMARK   10  A    between atoms: _22  and  _24
REMARK   11  A    between atoms: _24  and  _25
REMARK   12  A    between atoms: _27  and  _29
REMARK   13  A    between atoms: _29  and  _30
REMARK   14  A    between atoms: _33  and  _34
REMARK   15  A    between atoms: _39  and  _41
REMARK   16  A    between atoms: _41  and  _42
REMARK   17  A    between atoms: _41  and  _44
REMARK   18  A    between atoms: _44  and  _45
REMARK   19  A    between atoms: _50  and  _51
REMARK   20  A    between atoms: _53  and  _55
REMARK   21  A    between atoms: _55  and  _56
REMARK   22  A    between atoms: _55  and  _58
REMARK   23  A    between atoms: _61  and  _63
REMARK   24  A    between atoms: _63  and  _64
REMARK   25  A    between atoms: _63  and  _66
REMARK   26  A    between atoms: _66  and  _67
REMARK   27  A    between atoms: _70  and  _72
REMARK   28  A    between atoms: _72  and  _73
REMARK   29  A    between atoms: _72  and  _75
REMARK   30  A    between atoms: _75  and  _76
REMARK   31  A    between atoms: _79  and  _81
REMARK   32  A    between atoms: _81  and  _82
REMARK   33  A    between atoms: _81  and  _84
REMARK   34  A    between atoms: _84  and  _85
REMARK   35  A    between atoms: _85  and  _86
REMARK   36  A    between atoms: _86  and  _87
REMARK   37  A    between atoms: _96  and  _98
REMARK   38  A    between atoms: _98  and  _99
REMARK   39  A    between atoms: _101  and  _103
REMARK   40  A    between atoms: _103  and  _104
REMARK   41  A    between atoms: _103  and  _106
REMARK   42  A    between atoms: _106  and  _107
REMARK   43  A    between atoms: _112  and  _113
REMARK   44  A    between atoms: _115  and  _117
REMARK   45  A    between atoms: _117  and  _118
REMARK   46  A    between atoms: _117  and  _120
REMARK   47  A    between atoms: _120  and  _121
REMARK   48  A    between atoms: _124  and  _126
REMARK   49  A    between atoms: _126  and  _127
REMARK   50  A    between atoms: _126  and  _129
REMARK   51  A    between atoms: _129  and  _130
REMARK   52  A    between atoms: _140  and  _142
REMARK   53  A    between atoms: _142  and  _143
REMARK   54  A    between atoms: _142  and  _145
REMARK   55  A    between atoms: _145  and  _146
REMARK   56  A    between atoms: _146  and  _147
REMARK   57  A    between atoms: _152  and  _154
REMARK   58  A    between atoms: _154  and  _155
REMARK   59  A    between atoms: _158  and  _160
REMARK   60  A    between atoms: _160  and  _161
REMARK   61  A    between atoms: _163  and  _165
REMARK   62  A    between atoms: _165  and  _166
REMARK   63  A    between atoms: _165  and  _168
REMARK   64  A    between atoms: _168  and  _169
REMARK   65  A    between atoms: _174  and  _175
REMARK   66  A    between atoms: _177  and  _179
REMARK   67  A    between atoms: _179  and  _180
REMARK   68  A    between atoms: _179  and  _182
REMARK   69  A    between atoms: _182  and  _183
REMARK   70  A    between atoms: _188  and  _190
REMARK   71  A    between atoms: _190  and  _191
REMARK   72  A    between atoms: _190  and  _193
REMARK   73  A    between atoms: _193  and  _194
REMARK   74  A    between atoms: _198  and  _199
REMARK   75  A    between atoms: _204  and  _206
REMARK   76  A    between atoms: _206  and  _207
REMARK   77  A    between atoms: _206  and  _209
REMARK   78  A    between atoms: _209  and  _210
REMARK   79  A    between atoms: _215  and  _216
REMARK   80  A    between atoms: _219  and  _220
REMARK   81  A    between atoms: _225  and  _227
REMARK   82  A    between atoms: _227  and  _228
REMARK   83  A    between atoms: _227  and  _230
REMARK   84  A    between atoms: _230  and  _231
REMARK   85  A    between atoms: _241  and  _243
REMARK   86  A    between atoms: _243  and  _244
REMARK   87  A    between atoms: _243  and  _246
REMARK   88  A    between atoms: _246  and  _247
REMARK   89  A    between atoms: _247  and  _248
REMARK   90  A    between atoms: _248  and  _249
REMARK   91  A    between atoms: _258  and  _260
REMARK   92  A    between atoms: _260  and  _261
REMARK   93  A    between atoms: _260  and  _263
REMARK   94  A    between atoms: _263  and  _264
REMARK   95  A    between atoms: _269  and  _271
REMARK   96  A    between atoms: _271  and  _272
REMARK   97  A    between atoms: _271  and  _274
REMARK   98  A    between atoms: _274  and  _275
REMARK   99  A    between atoms: _275  and  _276
REMARK  100  A    between atoms: _279  and  _281
REMARK  101  A    between atoms: _281  and  _282
REMARK  102  A    between atoms: _281  and  _284
REMARK  103  A    between atoms: _284  and  _285
REMARK  104  A    between atoms: _295  and  _297
REMARK  105  A    between atoms: _297  and  _298
REMARK  106  A    between atoms: _297  and  _300
REMARK  107  A    between atoms: _300  and  _301
REMARK  108  A    between atoms: _304  and  _305
REMARK  109  A    between atoms: _310  and  _312
REMARK  110  A    between atoms: _312  and  _313
REMARK  111  A    between atoms: _316  and  _318
REMARK  112  A    between atoms: _329  and  _332
REMARK  113  A    between atoms: _332  and  _333
REMARK  114  A    between atoms: _338  and  _339
REMARK  115  A    between atoms: _347  and  _349
REMARK  116  A    between atoms: _349  and  _350
REMARK  117  A    between atoms: _349  and  _352
REMARK  118  A    between atoms: _352  and  _353
REMARK  119  A    between atoms: _353  and  _354
REMARK  120  A    between atoms: _359  and  _361
REMARK  121  A    between atoms: _361  and  _362
REMARK  122  A    between atoms: _361  and  _364
REMARK  123  A    between atoms: _364  and  _365
REMARK  124  A    between atoms: _370  and  _371
REMARK  125  A    between atoms: _373  and  _375
REMARK  126  A    between atoms: _375  and  _376
REMARK  127  A    between atoms: _375  and  _378
REMARK  128  A    between atoms: _380  and  _382
REMARK  129  A    between atoms: _382  and  _383
REMARK  130  A    between atoms: _382  and  _385
REMARK  131  A    between atoms: _385  and  _386
REMARK                            x       y       z     vdW  Elec       q    Type
REMARK                         _______ _______ _______ _____ _____    ______ ____
ROOT
ATOM      1  CA  THR A   1      19.567 -19.297  37.566  0.00  0.00    +0.160 C 
ENDROOT
BRANCH   1   2
ATOM      2  N   THR A   1      19.615 -18.110  36.728  0.00  0.00    -0.237 NA
ATOM      3  H   THR A   1      18.887 -17.374  36.826  0.00  0.00    +0.142 HD
ENDBRANCH   1   2
BRANCH   1   4
ATOM      4  CB  THR A   1      18.589 -19.089  38.767  0.00  0.00    +0.134 C 
ATOM      5  CG2 THR A   1      19.142 -18.044  39.723  0.00  0.00    +0.034 C 
BRANCH   4   6
ATOM      6  OG1 THR A   1      17.346 -18.574  38.283  0.00  0.00    -0.383 OA
ATOM      7  HG1 THR A   1      17.503 -17.708  37.830  0.00  0.00    +0.210 HD
ENDBRANCH   4   6
ENDBRANCH   1   4
BRANCH   1   8
ATOM      8  C   THR A   1      19.167 -20.531  36.769  0.00  0.00    +0.227 C 
ATOM      9  O   THR A   1      19.280 -21.647  37.290  0.00  0.00    -0.287 OA
ENDBRANCH   1   8
TORSDOF 4
REMARK  Name = ../refined-set-2016/2buv/2buv_pocket.pdb
REMARK  131 active torsions:
REMARK  status: ('A' for Active; 'I' for Inactive)
REMARK    1  A    between atoms: _1  and  _3
REMARK    2  A    between atoms: _3  and  _4
REMARK    3  A    between atoms: _3  and  _6
REMARK    4  A    between atoms: _6  and  _7
REMARK    5  A    between atoms: _7  and  _8
REMARK    6  A    between atoms: _13  and  _15
REMARK    7  A    between atoms: _15  and  _16
REMARK    8  A    between atoms: _15  and  _18
REMARK    9  A    between atoms: _18  and  _19
REMARK   10  A    between atoms: _22  and  _24
REMARK   11  A    between atoms: _24  and  _25
REMARK   12  A    between atoms: _27  and  _29
REMARK   13  A    between atoms: _29  and  _30
REMARK   14  A    between atoms: _33  and  _34
REMARK   15  A    between atoms: _39  and  _41
REMARK   16  A    between atoms: _41  and  _42
REMARK   17  A    between atoms: _41  and  _44
REMARK   18  A    between atoms: _44  and  _45
REMARK   19  A    between atoms: _50  and  _51
REMARK   20  A    between atoms: _53  and  _55
REMARK   21  A    between atoms: _55  and  _56
REMARK   22  A    between atoms: _55  and  _58
REMARK   23  A    between atoms: _61  and  _63
REMARK   24  A    between atoms: _63  and  _64
REMARK   25  A    between atoms: _63  and  _66
REMARK   26  A    between atoms: _66  and  _67
REMARK   27  A    between atoms: _70  and  _72
REMARK   28  A    between atoms: _72  and  _73
REMARK   29  A    between atoms: _72  and  _75
REMARK   30  A    between atoms: _75  and  _76
REMARK   31  A    between atoms: _79  and  _81
REMARK   32  A    between atoms: _81  and  _82
REMARK   33  A    between atoms: _81  and  _84
REMARK   34  A    between atoms: _84  and  _85
REMARK   35  A    between atoms: _85  and  _86
REMARK   36  A    between atoms: _86  and  _87
REMARK   37  A    between atoms: _96  and  _98
REMARK   38  A    between atoms: _98  and  _99
REMARK   39  A    between atoms: _101  and  _103
REMARK   40  A    between atoms: _103  and  _104
REMARK   41  A    between atoms: _103  and  _106
REMARK   42  A    between atoms: _106  and  _107
REMARK   43  A    between atoms: _112  and  _113
REMARK   44  A    between atoms: _115  and  _117
REMARK   45  A    between atoms: _117  and  _118
REMARK   46  A    between atoms: _117  and  _120
REMARK   47  A    between atoms: _120  and  _121
REMARK   48  A    between atoms: _124  and  _126
REMARK   49  A    between atoms: _126  and  _127
REMARK   50  A    between atoms: _126  and  _129
REMARK   51  A    between atoms: _129  and  _130
REMARK   52  A    between atoms: _140  and  _142
REMARK   53  A    between atoms: _142  and  _143
REMARK   54  A    between atoms: _142  and  _145
REMARK   55  A    between atoms: _145  and  _146
REMARK   56  A    between atoms: _146  and  _147
REMARK   57  A    between atoms: _152  and  _154
REMARK   58  A    between atoms: _154  and  _155
REMARK   59  A    between atoms: _158  and  _160
REMARK   60  A    between atoms: _160  and  _161
REMARK   61  A    between atoms: _163  and  _165
REMARK   62  A    between atoms: _165  and  _166
REMARK   63  A    between atoms: _165  and  _168
REMARK   64  A    between atoms: _168  and  _169
REMARK   65  A    between atoms: _174  and  _175
REMARK   66  A    between atoms: _177  and  _179
REMARK   67  A    between atoms: _179  and  _180
REMARK   68  A    between atoms: _179  and  _182
REMARK   69  A    between atoms: _182  and  _183
REMARK   70  A    between atoms: _188  and  _190
REMARK   71  A    between atoms: _190  and  _191
REMARK   72  A    between atoms: _190  and  _193
REMARK   73  A    between atoms: _193  and  _194
REMARK   74  A    between atoms: _198  and  _199
REMARK   75  A    between atoms: _204  and  _206
REMARK   76  A    between atoms: _206  and  _207
REMARK   77  A    between atoms: _206  and  _209
REMARK   78  A    between atoms: _209  and  _210
REMARK   79  A    between atoms: _215  and  _216
REMARK   80  A    between atoms: _219  and  _220
REMARK   81  A    between atoms: _225  and  _227
REMARK   82  A    between atoms: _227  and  _228
REMARK   83  A    between atoms: _227  and  _230
REMARK   84  A    between atoms: _230  and  _231
REMARK   85  A    between atoms: _241  and  _243
REMARK   86  A    between atoms: _243  and  _244
REMARK   87  A    between atoms: _243  and  _246
REMARK   88  A    between atoms: _246  and  _247
REMARK   89  A    between atoms: _247  and  _248
REMARK   90  A    between atoms: _248  and  _249
REMARK   91  A    between atoms: _258  and  _260
REMARK   92  A    between atoms: _260  and  _261
REMARK   93  A    between atoms: _260  and  _263
REMARK   94  A    between atoms: _263  and  _264
REMARK   95  A    between atoms: _269  and  _271
REMARK   96  A    between atoms: _271  and  _272
REMARK   97  A    between atoms: _271  and  _274
REMARK   98  A    between atoms: _274  and  _275
REMARK   99  A    between atoms: _275  and  _276
REMARK  100  A    between atoms: _279  and  _281
REMARK  101  A    between atoms: _281  and  _282
REMARK  102  A    between atoms: _281  and  _284
REMARK  103  A    between atoms: _284  and  _285
REMARK  104  A    between atoms: _295  and  _297
REMARK  105  A    between atoms: _297  and  _298
REMARK  106  A    between atoms: _297  and  _300
REMARK  107  A    between atoms: _300  and  _301
REMARK  108  A    between atoms: _304  and  _305
REMARK  109  A    between atoms: _310  and  _312
REMARK  110  A    between atoms: _312  and  _313
REMARK  111  A    between atoms: _316  and  _318
REMARK  112  A    between atoms: _329  and  _332
REMARK  113  A    between atoms: _332  and  _333
REMARK  114  A    between atoms: _338  and  _339
REMARK  115  A    between atoms: _347  and  _349
REMARK  116  A    between atoms: _349  and  _350
REMARK  117  A    between atoms: _349  and  _352
REMARK  118  A    between atoms: _352  and  _353
REMARK  119  A    between atoms: _353  and  _354
REMARK  120  A    between atoms: _359  and  _361
REMARK  121  A    between atoms: _361  and  _362
REMARK  122  A    between atoms: _361  and  _364
REMARK  123  A    between atoms: _364  and  _365
REMARK  124  A    between atoms: _370  and  _371
REMARK  125  A    between atoms: _373  and  _375
REMARK  126  A    between atoms: _375  and  _376
REMARK  127  A    between atoms: _375  and  _378
REMARK  128  A    between atoms: _380  and  _382
REMARK  129  A    between atoms: _382  and  _383
REMARK  130  A    between atoms: _382  and  _385
REMARK  131  A    between atoms: _385  and  _386
REMARK                            x       y       z     vdW  Elec       q    Type
REMARK                         _______ _______ _______ _____ _____    ______ ____
ROOT
ATOM      1  C   TRP A   1       1.206 -14.952  44.784  0.00  0.00    +0.239 C 
ATOM      2  N   GLN A   2       1.545 -13.926  45.555  0.00  0.00    -0.297 N 
ATOM      3  H   GLN A   2       1.481 -14.008  46.590  0.00  0.00    +0.150 HD
ATOM      4  O   TRP A   1       1.345 -14.952  43.549  0.00  0.00    -0.274 OA
ENDROOT
BRANCH   1   5
ATOM      5  CA  TRP A   1       0.617 -16.146  45.483  0.00  0.00    +0.149 C 
BRANCH   5   6
ATOM      6  N   TRP A   1      -0.203 -16.821  44.493  0.00  0.00    -0.238 NA
ATOM      7  H   TRP A   1       0.006 -16.713  43.480  0.00  0.00    +0.142 HD
ENDBRANCH   5   6
BRANCH   5   8
ATOM      8  CB  TRP A   1       1.655 -17.100  46.074  0.00  0.00    +0.054 C 
BRANCH   8   9
ATOM      9  CG  TRP A   1       2.752 -17.590  45.170  0.00  0.00    -0.002 A 
ATOM     10  CD1 TRP A   1       4.056 -17.096  45.094  0.00  0.00    +0.068 A 
ATOM     11  NE1 TRP A   1       4.780 -17.826  44.171  0.00  0.00    -0.352 N 
ATOM     12  HE1 TRP A   1       5.778 -17.670  43.924  0.00  0.00    +0.166 HD
ATOM     13  CE2 TRP A   1       3.961 -18.795  43.632  0.00  0.00    +0.056 A 
ATOM     14  CZ2 TRP A   1       4.255 -19.778  42.650  0.00  0.00    +0.017 A 
ATOM     15  CH2 TRP A   1       3.237 -20.637  42.294  0.00  0.00    +0.001 A 
ATOM     16  CZ3 TRP A   1       1.958 -20.562  42.879  0.00  0.00    +0.000 A 
ATOM     17  CE3 TRP A   1       1.667 -19.583  43.848  0.00  0.00    +0.001 A 
ATOM     18  CD2 TRP A   1       2.687 -18.681  44.229  0.00  0.00    +0.013 A 
ENDBRANCH   8   9
ENDBRANCH   5   8
ENDBRANCH   1   5
BRANCH   2  19
ATOM     19  CA  GLN A   2       2.000 -12.704  44.957  0.00  0.00    +0.149 C 
BRANCH  19  20
ATOM     20  C   GLN A   2       2.610 -11.843  46.035  0.00  0.00    +0.241 C 
ATOM     21  O   GLN A   2       2.452 -12.098  47.273  0.00  0.00    -0.273 OA
ATOM     22  N   ALA A   3       3.264 -10.788  45.555  0.00  0.00    -0.298 N 
ATOM     23  H   ALA A   3       3.356 -10.699  44.523  0.00  0.00    +0.150 HD
BRANCH  22  24
ATOM     24  CA  ALA A   3       3.861  -9.747  46.389  0.00  0.00    +0.137 C 
ATOM     25  CB  ALA A   3       4.875  -8.973  45.568  0.00  0.00    +0.030 C 
BRANCH  24  26
ATOM     26  C   ALA A   3       2.731  -8.771  46.812  0.00  0.00    +0.227 C 
ATOM     27  O   ALA A   3       1.650  -8.793  46.225  0.00  0.00    -0.286 OA
ENDBRANCH  24  26
ENDBRANCH  22  24
ENDBRANCH  19  20
BRANCH  19  28
ATOM     28  CB  GLN A   2       0.764 -11.924  44.373  0.00  0.00    +0.039 C 
BRANCH  28  29
ATOM     29  CG  GLN A   2      -0.300 -11.617  45.505  0.00  0.00    +0.087 C 
BRANCH  29  30
ATOM     30  CD  GLN A   2      -1.424 -10.664  45.081  0.00  0.00    +0.219 C 
ATOM     31  NE2 GLN A   2      -1.219  -9.346  45.253  0.00  0.00    -0.329 N 
ATOM     32 HE21 GLN A   2      -0.337  -9.010  45.690  0.00  0.00    +0.145 HD
ATOM     33 HE22 GLN A   2      -1.942  -8.663  44.949  0.00  0.00    +0.145 HD
ATOM     34  OE1 GLN A   2      -2.455 -11.122  44.567  0.00  0.00    -0.275 OA
ENDBRANCH  29  30
ENDBRANCH  28  29
ENDBRANCH  19  28
ENDBRANCH   2  19
TORSDOF 11
REMARK  Name = ../refined-set-2016/2buv/2buv_pocket.pdb
REMARK  131 active torsions:
REMARK  status: ('A' for Active; 'I' for Inactive)
REMARK    1  A    between atoms: _1  and  _3
REMARK    2  A    between atoms: _3  and  _4
REMARK    3  A    between atoms: _3  and  _6
REMARK    4  A    between atoms: _6  and  _7
REMARK    5  A    between atoms: _7  and  _8
REMARK    6  A    between atoms: _13  and  _15
REMARK    7  A    between atoms: _15  and  _16
REMARK    8  A    between atoms: _15  and  _18
REMARK    9  A    between atoms: _18  and  _19
REMARK   10  A    between atoms: _22  and  _24
REMARK   11  A    between atoms: _24  and  _25
REMARK   12  A    between atoms: _27  and  _29
REMARK   13  A    between atoms: _29  and  _30
REMARK   14  A    between atoms: _33  and  _34
REMARK   15  A    between atoms: _39  and  _41
REMARK   16  A    between atoms: _41  and  _42
REMARK   17  A    between atoms: _41  and  _44
REMARK   18  A    between atoms: _44  and  _45
REMARK   19  A    between atoms: _50  and  _51
REMARK   20  A    between atoms: _53  and  _55
REMARK   21  A    between atoms: _55  and  _56
REMARK   22  A    between atoms: _55  and  _58
REMARK   23  A    between atoms: _61  and  _63
REMARK   24  A    between atoms: _63  and  _64
REMARK   25  A    between atoms: _63  and  _66
REMARK   26  A    between atoms: _66  and  _67
REMARK   27  A    between atoms: _70  and  _72
REMARK   28  A    between atoms: _72  and  _73
REMARK   29  A    between atoms: _72  and  _75
REMARK   30  A    between atoms: _75  and  _76
REMARK   31  A    between atoms: _79  and  _81
REMARK   32  A    between atoms: _81  and  _82
REMARK   33  A    between atoms: _81  and  _84
REMARK   34  A    between atoms: _84  and  _85
REMARK   35  A    between atoms: _85  and  _86
REMARK   36  A    between atoms: _86  and  _87
REMARK   37  A    between atoms: _96  and  _98
REMARK   38  A    between atoms: _98  and  _99
REMARK   39  A    between atoms: _101  and  _103
REMARK   40  A    between atoms: _103  and  _104
REMARK   41  A    between atoms: _103  and  _106
REMARK   42  A    between atoms: _106  and  _107
REMARK   43  A    between atoms: _112  and  _113
REMARK   44  A    between atoms: _115  and  _117
REMARK   45  A    between atoms: _117  and  _118
REMARK   46  A    between atoms: _117  and  _120
REMARK   47  A    between atoms: _120  and  _121
REMARK   48  A    between atoms: _124  and  _126
REMARK   49  A    between atoms: _126  and  _127
REMARK   50  A    between atoms: _126  and  _129
REMARK   51  A    between atoms: _129  and  _130
REMARK   52  A    between atoms: _140  and  _142
REMARK   53  A    between atoms: _142  and  _143
REMARK   54  A    between atoms: _142  and  _145
REMARK   55  A    between atoms: _145  and  _146
REMARK   56  A    between atoms: _146  and  _147
REMARK   57  A    between atoms: _152  and  _154
REMARK   58  A    between atoms: _154  and  _155
REMARK   59  A    between atoms: _158  and  _160
REMARK   60  A    between atoms: _160  and  _161
REMARK   61  A    between atoms: _163  and  _165
REMARK   62  A    between atoms: _165  and  _166
REMARK   63  A    between atoms: _165  and  _168
REMARK   64  A    between atoms: _168  and  _169
REMARK   65  A    between atoms: _174  and  _175
REMARK   66  A    between atoms: _177  and  _179
REMARK   67  A    between atoms: _179  and  _180
REMARK   68  A    between atoms: _179  and  _182
REMARK   69  A    between atoms: _182  and  _183
REMARK   70  A    between atoms: _188  and  _190
REMARK   71  A    between atoms: _190  and  _191
REMARK   72  A    between atoms: _190  and  _193
REMARK   73  A    between atoms: _193  and  _194
REMARK   74  A    between atoms: _198  and  _199
REMARK   75  A    between atoms: _204  and  _206
REMARK   76  A    between atoms: _206  and  _207
REMARK   77  A    between atoms: _206  and  _209
REMARK   78  A    between atoms: _209  and  _210
REMARK   79  A    between atoms: _215  and  _216
REMARK   80  A    between atoms: _219  and  _220
REMARK   81  A    between atoms: _225  and  _227
REMARK   82  A    between atoms: _227  and  _228
REMARK   83  A    between atoms: _227  and  _230
REMARK   84  A    between atoms: _230  and  _231
REMARK   85  A    between atoms: _241  and  _243
REMARK   86  A    between atoms: _243  and  _244
REMARK   87  A    between atoms: _243  and  _246
REMARK   88  A    between atoms: _246  and  _247
REMARK   89  A    between atoms: _247  and  _248
REMARK   90  A    between atoms: _248  and  _249
REMARK   91  A    between atoms: _258  and  _260
REMARK   92  A    between atoms: _260  and  _261
REMARK   93  A    between atoms: _260  and  _263
REMARK   94  A    between atoms: _263  and  _264
REMARK   95  A    between atoms: _269  and  _271
REMARK   96  A    between atoms: _271  and  _272
REMARK   97  A    between atoms: _271  and  _274
REMARK   98  A    between atoms: _274  and  _275
REMARK   99  A    between atoms: _275  and  _276
REMARK  100  A    between atoms: _279  and  _281
REMARK  101  A    between atoms: _281  and  _282
REMARK  102  A    between atoms: _281  and  _284
REMARK  103  A    between atoms: _284  and  _285
REMARK  104  A    between atoms: _295  and  _297
REMARK  105  A    between atoms: _297  and  _298
REMARK  106  A    between atoms: _297  and  _300
REMARK  107  A    between atoms: _300  and  _301
REMARK  108  A    between atoms: _304  and  _305
REMARK  109  A    between atoms: _310  and  _312
REMARK  110  A    between atoms: _312  and  _313
REMARK  111  A    between atoms: _316  and  _318
REMARK  112  A    between atoms: _329  and  _332
REMARK  113  A    between atoms: _332  and  _333
REMARK  114  A    between atoms: _338  and  _339
REMARK  115  A    between atoms: _347  and  _349
REMARK  116  A    between atoms: _349  and  _350
REMARK  117  A    between atoms: _349  and  _352
REMARK  118  A    between atoms: _352  and  _353
REMARK  119  A    between atoms: _353  and  _354
REMARK  120  A    between atoms: _359  and  _361
REMARK  121  A    between atoms: _361  and  _362
REMARK  122  A    between atoms: _361  and  _364
REMARK  123  A    between atoms: _364  and  _365
REMARK  124  A    between atoms: _370  and  _371
REMARK  125  A    between atoms: _373  and  _375
REMARK  126  A    between atoms: _375  and  _376
REMARK  127  A    between atoms: _375  and  _378
REMARK  128  A    between atoms: _380  and  _382
REMARK  129  A    between atoms: _382  and  _383
REMARK  130  A    between atoms: _382  and  _385
REMARK  131  A    between atoms: _385  and  _386
REMARK                            x       y       z     vdW  Elec       q    Type
REMARK                         _______ _______ _______ _____ _____    ______ ____
ROOT
ATOM      1  CA  GLY A   1       6.368  -5.309  45.349  0.00  0.00    +0.156 C 
ENDROOT
BRANCH   1   2
ATOM      2  N   GLY A   1       5.473  -4.415  46.118  0.00  0.00    -0.238 NA
ATOM      3  H   GLY A   1       4.492  -4.699  46.314  0.00  0.00    +0.142 HD
ENDBRANCH   1   2
BRANCH   1   4
ATOM      4  C   GLY A   1       7.188  -6.191  46.328  0.00  0.00    +0.226 C 
ATOM      5  O   GLY A   1       8.196  -6.770  45.967  0.00  0.00    -0.287 OA
ENDBRANCH   1   4
TORSDOF 2
REMARK  Name = ../refined-set-2016/2buv/2buv_pocket.pdb
REMARK  131 active torsions:
REMARK  status: ('A' for Active; 'I' for Inactive)
REMARK    1  A    between atoms: _1  and  _3
REMARK    2  A    between atoms: _3  and  _4
REMARK    3  A    between atoms: _3  and  _6
REMARK    4  A    between atoms: _6  and  _7
REMARK    5  A    between atoms: _7  and  _8
REMARK    6  A    between atoms: _13  and  _15
REMARK    7  A    between atoms: _15  and  _16
REMARK    8  A    between atoms: _15  and  _18
REMARK    9  A    between atoms: _18  and  _19
REMARK   10  A    between atoms: _22  and  _24
REMARK   11  A    between atoms: _24  and  _25
REMARK   12  A    between atoms: _27  and  _29
REMARK   13  A    between atoms: _29  and  _30
REMARK   14  A    between atoms: _33  and  _34
REMARK   15  A    between atoms: _39  and  _41
REMARK   16  A    between atoms: _41  and  _42
REMARK   17  A    between atoms: _41  and  _44
REMARK   18  A    between atoms: _44  and  _45
REMARK   19  A    between atoms: _50  and  _51
REMARK   20  A    between atoms: _53  and  _55
REMARK   21  A    between atoms: _55  and  _56
REMARK   22  A    between atoms: _55  and  _58
REMARK   23  A    between atoms: _61  and  _63
REMARK   24  A    between atoms: _63  and  _64
REMARK   25  A    between atoms: _63  and  _66
REMARK   26  A    between atoms: _66  and  _67
REMARK   27  A    between atoms: _70  and  _72
REMARK   28  A    between atoms: _72  and  _73
REMARK   29  A    between atoms: _72  and  _75
REMARK   30  A    between atoms: _75  and  _76
REMARK   31  A    between atoms: _79  and  _81
REMARK   32  A    between atoms: _81  and  _82
REMARK   33  A    between atoms: _81  and  _84
REMARK   34  A    between atoms: _84  and  _85
REMARK   35  A    between atoms: _85  and  _86
REMARK   36  A    between atoms: _86  and  _87
REMARK   37  A    between atoms: _96  and  _98
REMARK   38  A    between atoms: _98  and  _99
REMARK   39  A    between atoms: _101  and  _103
REMARK   40  A    between atoms: _103  and  _104
REMARK   41  A    between atoms: _103  and  _106
REMARK   42  A    between atoms: _106  and  _107
REMARK   43  A    between atoms: _112  and  _113
REMARK   44  A    between atoms: _115  and  _117
REMARK   45  A    between atoms: _117  and  _118
REMARK   46  A    between atoms: _117  and  _120
REMARK   47  A    between atoms: _120  and  _121
REMARK   48  A    between atoms: _124  and  _126
REMARK   49  A    between atoms: _126  and  _127
REMARK   50  A    between atoms: _126  and  _129
REMARK   51  A    between atoms: _129  and  _130
REMARK   52  A    between atoms: _140  and  _142
REMARK   53  A    between atoms: _142  and  _143
REMARK   54  A    between atoms: _142  and  _145
REMARK   55  A    between atoms: _145  and  _146
REMARK   56  A    between atoms: _146  and  _147
REMARK   57  A    between atoms: _152  and  _154
REMARK   58  A    between atoms: _154  and  _155
REMARK   59  A    between atoms: _158  and  _160
REMARK   60  A    between atoms: _160  and  _161
REMARK   61  A    between atoms: _163  and  _165
REMARK   62  A    between atoms: _165  and  _166
REMARK   63  A    between atoms: _165  and  _168
REMARK   64  A    between atoms: _168  and  _169
REMARK   65  A    between atoms: _174  and  _175
REMARK   66  A    between atoms: _177  and  _179
REMARK   67  A    between atoms: _179  and  _180
REMARK   68  A    between atoms: _179  and  _182
REMARK   69  A    between atoms: _182  and  _183
REMARK   70  A    between atoms: _188  and  _190
REMARK   71  A    between atoms: _190  and  _191
REMARK   72  A    between atoms: _190  and  _193
REMARK   73  A    between atoms: _193  and  _194
REMARK   74  A    between atoms: _198  and  _199
REMARK   75  A    between atoms: _204  and  _206
REMARK   76  A    between atoms: _206  and  _207
REMARK   77  A    between atoms: _206  and  _209
REMARK   78  A    between atoms: _209  and  _210
REMARK   79  A    between atoms: _215  and  _216
REMARK   80  A    between atoms: _219  and  _220
REMARK   81  A    between atoms: _225  and  _227
REMARK   82  A    between atoms: _227  and  _228
REMARK   83  A    between atoms: _227  and  _230
REMARK   84  A    between atoms: _230  and  _231
REMARK   85  A    between atoms: _241  and  _243
REMARK   86  A    between atoms: _243  and  _244
REMARK   87  A    between atoms: _243  and  _246
REMARK   88  A    between atoms: _246  and  _247
REMARK   89  A    between atoms: _247  and  _248
REMARK   90  A    between atoms: _248  and  _249
REMARK   91  A    between atoms: _258  and  _260
REMARK   92  A    between atoms: _260  and  _261
REMARK   93  A    between atoms: _260  and  _263
REMARK   94  A    between atoms: _263  and  _264
REMARK   95  A    between atoms: _269  and  _271
REMARK   96  A    between atoms: _271  and  _272
REMARK   97  A    between atoms: _271  and  _274
REMARK   98  A    between atoms: _274  and  _275
REMARK   99  A    between atoms: _275  and  _276
REMARK  100  A    between atoms: _279  and  _281
REMARK  101  A    between atoms: _281  and  _282
REMARK  102  A    between atoms: _281  and  _284
REMARK  103  A    between atoms: _284  and  _285
REMARK  104  A    between atoms: _295  and  _297
REMARK  105  A    between atoms: _297  and  _298
REMARK  106  A    between atoms: _297  and  _300
REMARK  107  A    between atoms: _300  and  _301
REMARK  108  A    between atoms: _304  and  _305
REMARK  109  A    between atoms: _310  and  _312
REMARK  110  A    between atoms: _312  and  _313
REMARK  111  A    between atoms: _316  and  _318
REMARK  112  A    between atoms: _329  and  _332
REMARK  113  A    between atoms: _332  and  _333
REMARK  114  A    between atoms: _338  and  _339
REMARK  115  A    between atoms: _347  and  _349
REMARK  116  A    between atoms: _349  and  _350
REMARK  117  A    between atoms: _349  and  _352
REMARK  118  A    between atoms: _352  and  _353
REMARK  119  A    between atoms: _353  and  _354
REMARK  120  A    between atoms: _359  and  _361
REMARK  121  A    between atoms: _361  and  _362
REMARK  122  A    between atoms: _361  and  _364
REMARK  123  A    between atoms: _364  and  _365
REMARK  124  A    between atoms: _370  and  _371
REMARK  125  A    between atoms: _373  and  _375
REMARK  126  A    between atoms: _375  and  _376
REMARK  127  A    between atoms: _375  and  _378
REMARK  128  A    between atoms: _380  and  _382
REMARK  129  A    between atoms: _382  and  _383
REMARK  130  A    between atoms: _382  and  _385
REMARK  131  A    between atoms: _385  and  _386
REMARK                            x       y       z     vdW  Elec       q    Type
REMARK                         _______ _______ _______ _____ _____    ______ ____
ROOT
ATOM      1  CG  TYR A   1       7.209 -11.991  47.041  0.00  0.00    -0.020 A 
ATOM      2  CD2 TYR A   1       6.105 -12.732  46.634  0.00  0.00    -0.001 A 
ATOM      3  CE2 TYR A   1       5.794 -12.880  45.244  0.00  0.00    +0.036 A 
ATOM      4  CZ  TYR A   1       6.605 -12.254  44.287  0.00  0.00    +0.134 A 
ATOM      5  CE1 TYR A   1       7.710 -11.489  44.687  0.00  0.00    +0.036 A 
ATOM      6  CD1 TYR A   1       8.010 -11.365  46.064  0.00  0.00    -0.001 A 
ENDROOT
BRANCH   4   7
ATOM      7  OH  TYR A   1       6.349 -12.410  42.932  0.00  0.00    -0.506 OA
ATOM      8  HH  TYR A   1       7.124 -12.848  42.499  0.00  0.00    +0.292 HD
ENDBRANCH   4   7
BRANCH   1   9
ATOM      9  CB  TYR A   1       7.570 -11.899  48.490  0.00  0.00    +0.051 C 
BRANCH   9  10
ATOM     10  CA  TYR A   1       6.817 -10.805  49.259  0.00  0.00    +0.137 C 
BRANCH  10  11
ATOM     11  N   TYR A   1       7.416  -9.486  48.989  0.00  0.00    -0.239 NA
ATOM     12  H   TYR A   1       8.443  -9.413  48.839  0.00  0.00    +0.142 HD
ENDBRANCH  10  11
BRANCH  10  13
ATOM     13  C   TYR A   1       6.924 -11.127  50.739  0.00  0.00    +0.224 C 
ATOM     14  O   TYR A   1       7.869 -10.696  51.388  0.00  0.00    -0.287 OA
ENDBRANCH  10  13
ENDBRANCH   9  10
ENDBRANCH   1   9
TORSDOF 5
REMARK  Name = ../refined-set-2016/2buv/2buv_pocket.pdb
REMARK  131 active torsions:
REMARK  status: ('A' for Active; 'I' for Inactive)
REMARK    1  A    between atoms: _1  and  _3
REMARK    2  A    between atoms: _3  and  _4
REMARK    3  A    between atoms: _3  and  _6
REMARK    4  A    between atoms: _6  and  _7
REMARK    5  A    between atoms: _7  and  _8
REMARK    6  A    between atoms: _13  and  _15
REMARK    7  A    between atoms: _15  and  _16
REMARK    8  A    between atoms: _15  and  _18
REMARK    9  A    between atoms: _18  and  _19
REMARK   10  A    between atoms: _22  and  _24
REMARK   11  A    between atoms: _24  and  _25
REMARK   12  A    between atoms: _27  and  _29
REMARK   13  A    between atoms: _29  and  _30
REMARK   14  A    between atoms: _33  and  _34
REMARK   15  A    between atoms: _39  and  _41
REMARK   16  A    between atoms: _41  and  _42
REMARK   17  A    between atoms: _41  and  _44
REMARK   18  A    between atoms: _44  and  _45
REMARK   19  A    between atoms: _50  and  _51
REMARK   20  A    between atoms: _53  and  _55
REMARK   21  A    between atoms: _55  and  _56
REMARK   22  A    between atoms: _55  and  _58
REMARK   23  A    between atoms: _61  and  _63
REMARK   24  A    between atoms: _63  and  _64
REMARK   25  A    between atoms: _63  and  _66
REMARK   26  A    between atoms: _66  and  _67
REMARK   27  A    between atoms: _70  and  _72
REMARK   28  A    between atoms: _72  and  _73
REMARK   29  A    between atoms: _72  and  _75
REMARK   30  A    between atoms: _75  and  _76
REMARK   31  A    between atoms: _79  and  _81
REMARK   32  A    between atoms: _81  and  _82
REMARK   33  A    between atoms: _81  and  _84
REMARK   34  A    between atoms: _84  and  _85
REMARK   35  A    between atoms: _85  and  _86
REMARK   36  A    between atoms: _86  and  _87
REMARK   37  A    between atoms: _96  and  _98
REMARK   38  A    between atoms: _98  and  _99
REMARK   39  A    between atoms: _101  and  _103
REMARK   40  A    between atoms: _103  and  _104
REMARK   41  A    between atoms: _103  and  _106
REMARK   42  A    between atoms: _106  and  _107
REMARK   43  A    between atoms: _112  and  _113
REMARK   44  A    between atoms: _115  and  _117
REMARK   45  A    between atoms: _117  and  _118
REMARK   46  A    between atoms: _117  and  _120
REMARK   47  A    between atoms: _120  and  _121
REMARK   48  A    between atoms: _124  and  _126
REMARK   49  A    between atoms: _126  and  _127
REMARK   50  A    between atoms: _126  and  _129
REMARK   51  A    between atoms: _129  and  _130
REMARK   52  A    between atoms: _140  and  _142
REMARK   53  A    between atoms: _142  and  _143
REMARK   54  A    between atoms: _142  and  _145
REMARK   55  A    between atoms: _145  and  _146
REMARK   56  A    between atoms: _146  and  _147
REMARK   57  A    between atoms: _152  and  _154
REMARK   58  A    between atoms: _154  and  _155
REMARK   59  A    between atoms: _158  and  _160
REMARK   60  A    between atoms: _160  and  _161
REMARK   61  A    between atoms: _163  and  _165
REMARK   62  A    between atoms: _165  and  _166
REMARK   63  A    between atoms: _165  and  _168
REMARK   64  A    between atoms: _168  and  _169
REMARK   65  A    between atoms: _174  and  _175
REMARK   66  A    between atoms: _177  and  _179
REMARK   67  A    between atoms: _179  and  _180
REMARK   68  A    between atoms: _179  and  _182
REMARK   69  A    between atoms: _182  and  _183
REMARK   70  A    between atoms: _188  and  _190
REMARK   71  A    between atoms: _190  and  _191
REMARK   72  A    between atoms: _190  and  _193
REMARK   73  A    between atoms: _193  and  _194
REMARK   74  A    between atoms: _198  and  _199
REMARK   75  A    between atoms: _204  and  _206
REMARK   76  A    between atoms: _206  and  _207
REMARK   77  A    between atoms: _206  and  _209
REMARK   78  A    between atoms: _209  and  _210
REMARK   79  A    between atoms: _215  and  _216
REMARK   80  A    between atoms: _219  and  _220
REMARK   81  A    between atoms: _225  and  _227
REMARK   82  A    between atoms: _227  and  _228
REMARK   83  A    between atoms: _227  and  _230
REMARK   84  A    between atoms: _230  and  _231
REMARK   85  A    between atoms: _241  and  _243
REMARK   86  A    between atoms: _243  and  _244
REMARK   87  A    between atoms: _243  and  _246
REMARK   88  A    between atoms: _246  and  _247
REMARK   89  A    between atoms: _247  and  _248
REMARK   90  A    between atoms: _248  and  _249
REMARK   91  A    between atoms: _258  and  _260
REMARK   92  A    between atoms: _260  and  _261
REMARK   93  A    between atoms: _260  and  _263
REMARK   94  A    between atoms: _263  and  _264
REMARK   95  A    between atoms: _269  and  _271
REMARK   96  A    between atoms: _271  and  _272
REMARK   97  A    between atoms: _271  and  _274
REMARK   98  A    between atoms: _274  and  _275
REMARK   99  A    between atoms: _275  and  _276
REMARK  100  A    between atoms: _279  and  _281
REMARK  101  A    between atoms: _281  and  _282
REMARK  102  A    between atoms: _281  and  _284
REMARK  103  A    between atoms: _284  and  _285
REMARK  104  A    between atoms: _295  and  _297
REMARK  105  A    between atoms: _297  and  _298
REMARK  106  A    between atoms: _297  and  _300
REMARK  107  A    between atoms: _300  and  _301
REMARK  108  A    between atoms: _304  and  _305
REMARK  109  A    between atoms: _310  and  _312
REMARK  110  A    between atoms: _312  and  _313
REMARK  111  A    between atoms: _316  and  _318
REMARK  112  A    between atoms: _329  and  _332
REMARK  113  A    between atoms: _332  and  _333
REMARK  114  A    between atoms: _338  and  _339
REMARK  115  A    between atoms: _347  and  _349
REMARK  116  A    between atoms: _349  and  _350
REMARK  117  A    between atoms: _349  and  _352
REMARK  118  A    between atoms: _352  and  _353
REMARK  119  A    between atoms: _353  and  _354
REMARK  120  A    between atoms: _359  and  _361
REMARK  121  A    between atoms: _361  and  _362
REMARK  122  A    between atoms: _361  and  _364
REMARK  123  A    between atoms: _364  and  _365
REMARK  124  A    between atoms: _370  and  _371
REMARK  125  A    between atoms: _373  and  _375
REMARK  126  A    between atoms: _375  and  _376
REMARK  127  A    between atoms: _375  and  _378
REMARK  128  A    between atoms: _380  and  _382
REMARK  129  A    between atoms: _382  and  _383
REMARK  130  A    between atoms: _382  and  _385
REMARK  131  A    between atoms: _385  and  _386
REMARK                            x       y       z     vdW  Elec       q    Type
REMARK                         _______ _______ _______ _____ _____    ______ ____
ROOT
ATOM      1  C   ASN A   1      14.027 -13.452  51.011  0.00  0.00    +0.239 C 
ATOM      2  N   ASP A   2      12.972 -12.669  51.258  0.00  0.00    -0.298 N 
ATOM      3  H   ASP A   2      12.282 -12.948  51.984  0.00  0.00    +0.150 HD
ATOM      4  O   ASN A   1      14.820 -13.194  50.160  0.00  0.00    -0.274 OA
ENDROOT
BRANCH   1   5
ATOM      5  CA  ASN A   1      14.235 -14.745  51.809  0.00  0.00    +0.154 C 
BRANCH   5   6
ATOM      6  N   ASN A   1      13.132 -15.146  52.678  0.00  0.00    -0.238 NA
ATOM      7  H   ASN A   1      12.406 -15.810  52.341  0.00  0.00    +0.142 HD
ENDBRANCH   5   6
BRANCH   5   8
ATOM      8  CB  ASN A   1      14.604 -15.856  50.815  0.00  0.00    +0.111 C 
BRANCH   8   9
ATOM      9  CG  ASN A   1      15.041 -17.135  51.516  0.00  0.00    +0.221 C 
ATOM     10  ND2 ASN A   1      15.531 -16.980  52.769  0.00  0.00    -0.329 N 
ATOM     11 HD21 ASN A   1      15.837 -17.811  53.314  0.00  0.00    +0.145 HD
ATOM     12 HD22 ASN A   1      15.602 -16.030  53.186  0.00  0.00    +0.145 HD
ATOM     13  OD1 ASN A   1      14.932 -18.264  50.959  0.00  0.00    -0.275 OA
ENDBRANCH   8   9
ENDBRANCH   5   8
ENDBRANCH   1   5
BRANCH   2  14
ATOM     14  CA  ASP A   2      12.779 -11.416  50.511  0.00  0.00    +0.148 C 
BRANCH  14  15
ATOM     15  C   ASP A   2      13.148 -10.220  51.450  0.00  0.00    +0.227 C 
ATOM     16  O   ASP A   2      12.437  -9.963  52.440  0.00  0.00    -0.286 OA
ENDBRANCH  14  15
BRANCH  14  17
ATOM     17  CB  ASP A   2      11.300 -11.242  50.052  0.00  0.00    +0.142 C 
BRANCH  17  18
ATOM     18  CG  ASP A   2      11.131 -10.012  49.166  0.00  0.00    +0.367 C 
ATOM     19  OD2 ASP A   2      12.068  -9.197  49.192  0.00  0.00    -0.246 OA
ATOM     20  OD1 ASP A   2      10.111  -9.845  48.429  0.00  0.00    -0.246 OA
ENDBRANCH  17  18
ENDBRANCH  14  17
ENDBRANCH   2  14
TORSDOF 8
REMARK  Name = ../refined-set-2016/2buv/2buv_pocket.pdb
REMARK  131 active torsions:
REMARK  status: ('A' for Active; 'I' for Inactive)
REMARK    1  A    between atoms: _1  and  _3
REMARK    2  A    between atoms: _3  and  _4
REMARK    3  A    between atoms: _3  and  _6
REMARK    4  A    between atoms: _6  and  _7
REMARK    5  A    between atoms: _7  and  _8
REMARK    6  A    between atoms: _13  and  _15
REMARK    7  A    between atoms: _15  and  _16
REMARK    8  A    between atoms: _15  and  _18
REMARK    9  A    between atoms: _18  and  _19
REMARK   10  A    between atoms: _22  and  _24
REMARK   11  A    between atoms: _24  and  _25
REMARK   12  A    between atoms: _27  and  _29
REMARK   13  A    between atoms: _29  and  _30
REMARK   14  A    between atoms: _33  and  _34
REMARK   15  A    between atoms: _39  and  _41
REMARK   16  A    between atoms: _41  and  _42
REMARK   17  A    between atoms: _41  and  _44
REMARK   18  A    between atoms: _44  and  _45
REMARK   19  A    between atoms: _50  and  _51
REMARK   20  A    between atoms: _53  and  _55
REMARK   21  A    between atoms: _55  and  _56
REMARK   22  A    between atoms: _55  and  _58
REMARK   23  A    between atoms: _61  and  _63
REMARK   24  A    between atoms: _63  and  _64
REMARK   25  A    between atoms: _63  and  _66
REMARK   26  A    between atoms: _66  and  _67
REMARK   27  A    between atoms: _70  and  _72
REMARK   28  A    between atoms: _72  and  _73
REMARK   29  A    between atoms: _72  and  _75
REMARK   30  A    between atoms: _75  and  _76
REMARK   31  A    between atoms: _79  and  _81
REMARK   32  A    between atoms: _81  and  _82
REMARK   33  A    between atoms: _81  and  _84
REMARK   34  A    between atoms: _84  and  _85
REMARK   35  A    between atoms: _85  and  _86
REMARK   36  A    between atoms: _86  and  _87
REMARK   37  A    between atoms: _96  and  _98
REMARK   38  A    between atoms: _98  and  _99
REMARK   39  A    between atoms: _101  and  _103
REMARK   40  A    between atoms: _103  and  _104
REMARK   41  A    between atoms: _103  and  _106
REMARK   42  A    between atoms: _106  and  _107
REMARK   43  A    between atoms: _112  and  _113
REMARK   44  A    between atoms: _115  and  _117
REMARK   45  A    between atoms: _117  and  _118
REMARK   46  A    between atoms: _117  and  _120
REMARK   47  A    between atoms: _120  and  _121
REMARK   48  A    between atoms: _124  and  _126
REMARK   49  A    between atoms: _126  and  _127
REMARK   50  A    between atoms: _126  and  _129
REMARK   51  A    between atoms: _129  and  _130
REMARK   52  A    between atoms: _140  and  _142
REMARK   53  A    between atoms: _142  and  _143
REMARK   54  A    between atoms: _142  and  _145
REMARK   55  A    between atoms: _145  and  _146
REMARK   56  A    between atoms: _146  and  _147
REMARK   57  A    between atoms: _152  and  _154
REMARK   58  A    between atoms: _154  and  _155
REMARK   59  A    between atoms: _158  and  _160
REMARK   60  A    between atoms: _160  and  _161
REMARK   61  A    between atoms: _163  and  _165
REMARK   62  A    between atoms: _165  and  _166
REMARK   63  A    between atoms: _165  and  _168
REMARK   64  A    between atoms: _168  and  _169
REMARK   65  A    between atoms: _174  and  _175
REMARK   66  A    between atoms: _177  and  _179
REMARK   67  A    between atoms: _179  and  _180
REMARK   68  A    between atoms: _179  and  _182
REMARK   69  A    between atoms: _182  and  _183
REMARK   70  A    between atoms: _188  and  _190
REMARK   71  A    between atoms: _190  and  _191
REMARK   72  A    between atoms: _190  and  _193
REMARK   73  A    between atoms: _193  and  _194
REMARK   74  A    between atoms: _198  and  _199
REMARK   75  A    between atoms: _204  and  _206
REMARK   76  A    between atoms: _206  and  _207
REMARK   77  A    between atoms: _206  and  _209
REMARK   78  A    between atoms: _209  and  _210
REMARK   79  A    between atoms: _215  and  _216
REMARK   80  A    between atoms: _219  and  _220
REMARK   81  A    between atoms: _225  and  _227
REMARK   82  A    between atoms: _227  and  _228
REMARK   83  A    between atoms: _227  and  _230
REMARK   84  A    between atoms: _230  and  _231
REMARK   85  A    between atoms: _241  and  _243
REMARK   86  A    between atoms: _243  and  _244
REMARK   87  A    between atoms: _243  and  _246
REMARK   88  A    between atoms: _246  and  _247
REMARK   89  A    between atoms: _247  and  _248
REMARK   90  A    between atoms: _248  and  _249
REMARK   91  A    between atoms: _258  and  _260
REMARK   92  A    between atoms: _260  and  _261
REMARK   93  A    between atoms: _260  and  _263
REMARK   94  A    between atoms: _263  and  _264
REMARK   95  A    between atoms: _269  and  _271
REMARK   96  A    between atoms: _271  and  _272
REMARK   97  A    between atoms: _271  and  _274
REMARK   98  A    between atoms: _274  and  _275
REMARK   99  A    between atoms: _275  and  _276
REMARK  100  A    between atoms: _279  and  _281
REMARK  101  A    between atoms: _281  and  _282
REMARK  102  A    between atoms: _281  and  _284
REMARK  103  A    between atoms: _284  and  _285
REMARK  104  A    between atoms: _295  and  _297
REMARK  105  A    between atoms: _297  and  _298
REMARK  106  A    between atoms: _297  and  _300
REMARK  107  A    between atoms: _300  and  _301
REMARK  108  A    between atoms: _304  and  _305
REMARK  109  A    between atoms: _310  and  _312
REMARK  110  A    between atoms: _312  and  _313
REMARK  111  A    between atoms: _316  and  _318
REMARK  112  A    between atoms: _329  and  _332
REMARK  113  A    between atoms: _332  and  _333
REMARK  114  A    between atoms: _338  and  _339
REMARK  115  A    between atoms: _347  and  _349
REMARK  116  A    between atoms: _349  and  _350
REMARK  117  A    between atoms: _349  and  _352
REMARK  118  A    between atoms: _352  and  _353
REMARK  119  A    between atoms: _353  and  _354
REMARK  120  A    between atoms: _359  and  _361
REMARK  121  A    between atoms: _361  and  _362
REMARK  122  A    between atoms: _361  and  _364
REMARK  123  A    between atoms: _364  and  _365
REMARK  124  A    between atoms: _370  and  _371
REMARK  125  A    between atoms: _373  and  _375
REMARK  126  A    between atoms: _375  and  _376
REMARK  127  A    between atoms: _375  and  _378
REMARK  128  A    between atoms: _380  and  _382
REMARK  129  A    between atoms: _382  and  _383
REMARK  130  A    between atoms: _382  and  _385
REMARK  131  A    between atoms: _385  and  _386
REMARK                            x       y       z     vdW  Elec       q    Type
REMARK                         _______ _______ _______ _____ _____    ______ ____
ROOT
ATOM      1  CA  TRP A   4      15.495  -8.583  41.754  0.00  0.00    +0.153 C 
ENDROOT
BRANCH   1   2
ATOM      2  C   TRP A   4      16.854  -8.630  41.089  0.00  0.00    +0.241 C 
ATOM      3  N   ARG A   5      17.694  -9.560  41.511  0.00  0.00    -0.297 N 
ATOM      4  H   ARG A   5      17.418 -10.240  42.248  0.00  0.00    +0.150 HD
ATOM      5  O   TRP A   4      17.159  -7.846  40.197  0.00  0.00    -0.273 OA
BRANCH   3   6
ATOM      6  CA  ARG A   5      18.997  -9.598  40.918  0.00  0.00    +0.149 C 
BRANCH   6   7
ATOM      7  C   ARG A   5      19.189 -10.731  39.895  0.00  0.00    +0.241 C 
ATOM      8  O   ARG A   5      19.396 -11.876  40.269  0.00  0.00    -0.273 OA
ATOM      9  N   ASN A   6      19.008 -10.398  38.613  0.00  0.00    -0.298 N 
ATOM     10  H   ASN A   6      18.654  -9.444  38.399  0.00  0.00    +0.150 HD
BRANCH   9  11
ATOM     11  CA  ASN A   6      19.277 -11.292  37.505  0.00  0.00    +0.146 C 
BRANCH  11  12
ATOM     12  C   ASN A   6      20.489 -10.439  36.965  0.00  0.00    +0.227 C 
ATOM     13  O   ASN A   6      21.663 -10.730  37.232  0.00  0.00    -0.286 OA
ENDBRANCH  11  12
BRANCH  11  14
ATOM     14  CB  ASN A   6      18.060 -11.350  36.553  0.00  0.00    +0.112 C 
BRANCH  14  15
ATOM     15  CG  ASN A   6      18.288 -12.364  35.429  0.00  0.00    +0.222 C 
ATOM     16  OD1 ASN A   6      18.495 -13.552  35.714  0.00  0.00    -0.275 OA
ATOM     17  ND2 ASN A   6      18.272 -11.903  34.158  0.00  0.00    -0.329 N 
ATOM     18 HD21 ASN A   6      18.093 -10.895  33.973  0.00  0.00    +0.145 HD
ATOM     19 HD22 ASN A   6      18.438 -12.556  33.366  0.00  0.00    +0.145 HD
ENDBRANCH  14  15
ENDBRANCH  11  14
ENDBRANCH   9  11
ENDBRANCH   6   7
BRANCH   6  20
ATOM     20  CB  ARG A   5      20.076  -9.677  42.038  0.00  0.00    +0.033 C 
BRANCH  20  21
ATOM     21  CG  ARG A   5      21.533  -9.625  41.462  0.00  0.00    +0.045 C 
BRANCH  21  22
ATOM     22  CD  ARG A   5      22.660  -9.309  42.493  0.00  0.00    +0.174 C 
BRANCH  22  23
ATOM     23  NE  ARG A   5      22.794 -10.350  43.501  0.00  0.00    -0.265 N 
ATOM     24  HE  ARG A   5      21.931 -10.636  44.007  0.00  0.00    +0.259 HD
ATOM     25  CZ  ARG A   5      23.932 -10.971  43.833  0.00  0.00    +0.342 C 
ATOM     26  NH2 ARG A   5      23.901 -11.881  44.781  0.00  0.00    -0.292 N 
ATOM     27 HH21 ARG A   5      23.004 -12.106  45.257  0.00  0.00    +0.255 HD
ATOM     28 HH22 ARG A   5      24.773 -12.376  45.055  0.00  0.00    +0.255 HD
ATOM     29  NH1 ARG A   5      25.091 -10.696  43.247  0.00  0.00    -0.292 N 
ATOM     30 HH11 ARG A   5      25.952 -11.202  43.535  0.00  0.00    +0.255 HD
ATOM     31 HH12 ARG A   5      25.138  -9.974  42.500  0.00  0.00    +0.255 HD
ENDBRANCH  22  23
ENDBRANCH  21  22
ENDBRANCH  20  21
ENDBRANCH   6  20
ENDBRANCH   3   6
ENDBRANCH   1   2
BRANCH   1  34
ATOM     32  C   PRO A   3      13.808  -6.950  42.191  0.00  0.00    +0.241 C 
ATOM     33  O   PRO A   3      13.521  -7.520  43.241  0.00  0.00    -0.273 OA
ATOM     34  N   TRP A   4      14.754  -7.400  41.386  0.00  0.00    -0.297 N 
ATOM     35  H   TRP A   4      14.963  -6.906  40.495  0.00  0.00    +0.150 HD
BRANCH  32  41
ATOM     36  C   TYR A   2      10.762  -6.479  41.440  0.00  0.00    +0.244 C 
ATOM     37  N   PRO A   3      11.677  -5.794  42.184  0.00  0.00    -0.272 N 
ATOM     38  CD  PRO A   3      11.476  -5.160  43.502  0.00  0.00    +0.094 C 
ATOM     39  CG  PRO A   3      12.929  -4.614  43.861  0.00  0.00    +0.024 C 
ATOM     40  CB  PRO A   3      13.587  -4.438  42.497  0.00  0.00    +0.031 C 
ATOM     41  CA  PRO A   3      13.079  -5.683  41.754  0.00  0.00    +0.152 C 
ATOM     42  O   TYR A   2      11.061  -6.988  40.356  0.00  0.00    -0.273 OA
BRANCH  36  43
ATOM     43  CA  TYR A   2       9.288  -6.574  41.950  0.00  0.00    +0.153 C 
BRANCH  43  46
ATOM     44  C   PRO A   1       7.531  -4.978  41.257  0.00  0.00    +0.239 C 
ATOM     45  O   PRO A   1       7.682  -4.286  42.270  0.00  0.00    -0.274 OA
ATOM     46  N   TYR A   2       8.293  -6.028  41.003  0.00  0.00    -0.297 N 
ATOM     47  H   TYR A   2       8.186  -6.498  40.082  0.00  0.00    +0.150 HD
BRANCH  44  52
ATOM     48  N   PRO A   1       5.345  -4.064  41.005  0.00  0.00    -0.210 NA
ATOM     49  CD  PRO A   1       4.908  -2.748  40.509  0.00  0.00    +0.089 C 
ATOM     50  CG  PRO A   1       5.596  -2.666  39.141  0.00  0.00    +0.021 C 
ATOM     51  CB  PRO A   1       6.892  -3.464  39.310  0.00  0.00    +0.028 C 
ATOM     52  CA  PRO A   1       6.457  -4.635  40.209  0.00  0.00    +0.149 C 
ENDBRANCH  44  52
ENDBRANCH  43  46
BRANCH  43  53
ATOM     53  CB  TYR A   2       8.836  -8.047  42.204  0.00  0.00    +0.055 C 
BRANCH  53  54
ATOM     54  CG  TYR A   2       9.898  -8.974  42.781  0.00  0.00    -0.020 A 
ATOM     55  CD2 TYR A   2      10.256  -8.909  44.139  0.00  0.00    -0.001 A 
ATOM     56  CE2 TYR A   2      11.245  -9.785  44.691  0.00  0.00    +0.036 A 
ATOM     57  CZ  TYR A   2      11.870 -10.717  43.840  0.00  0.00    +0.134 A 
ATOM     58  CE1 TYR A   2      11.530 -10.786  42.502  0.00  0.00    +0.036 A 
ATOM     59  CD1 TYR A   2      10.545  -9.923  41.967  0.00  0.00    -0.001 A 
BRANCH  57  60
ATOM     60  OH  TYR A   2      12.851 -11.584  44.328  0.00  0.00    -0.506 OA
ATOM     61  HH  TYR A   2      12.985 -11.418  45.295  0.00  0.00    +0.292 HD
ENDBRANCH  57  60
ENDBRANCH  53  54
ENDBRANCH  43  53
ENDBRANCH  36  43
ENDBRANCH  32  41
ENDBRANCH   1  34
BRANCH   1  62
ATOM     62  CB  TRP A   4      14.660  -9.842  41.437  0.00  0.00    +0.057 C 
BRANCH  62  63
ATOM     63  CG  TRP A   4      14.232 -10.023  40.004  0.00  0.00    -0.002 A 
ATOM     64  CD1 TRP A   4      13.367  -9.240  39.293  0.00  0.00    +0.068 A 
ATOM     65  NE1 TRP A   4      13.153  -9.772  38.043  0.00  0.00    -0.352 N 
ATOM     66  CE2 TRP A   4      13.893 -10.918  37.911  0.00  0.00    +0.056 A 
ATOM     67  CZ2 TRP A   4      14.007 -11.809  36.828  0.00  0.00    +0.017 A 
ATOM     68  CH2 TRP A   4      14.827 -12.912  36.983  0.00  0.00    +0.001 A 
ATOM     69  CZ3 TRP A   4      15.532 -13.145  38.179  0.00  0.00    +0.000 A 
ATOM     70  CE3 TRP A   4      15.422 -12.249  39.261  0.00  0.00    +0.001 A 
ATOM     71  HE1 TRP A   4      12.530  -9.369  37.315  0.00  0.00    +0.166 HD
ATOM     72  CD2 TRP A   4      14.589 -11.115  39.126  0.00  0.00    +0.013 A 
ENDBRANCH  62  63
ENDBRANCH   1  62
TORSDOF 21
REMARK  Name = ../refined-set-2016/2buv/2buv_pocket.pdb
REMARK  131 active torsions:
REMARK  status: ('A' for Active; 'I' for Inactive)
REMARK    1  A    between atoms: _1  and  _3
REMARK    2  A    between atoms: _3  and  _4
REMARK    3  A    between atoms: _3  and  _6
REMARK    4  A    between atoms: _6  and  _7
REMARK    5  A    between atoms: _7  and  _8
REMARK    6  A    between atoms: _13  and  _15
REMARK    7  A    between atoms: _15  and  _16
REMARK    8  A    between atoms: _15  and  _18
REMARK    9  A    between atoms: _18  and  _19
REMARK   10  A    between atoms: _22  and  _24
REMARK   11  A    between atoms: _24  and  _25
REMARK   12  A    between atoms: _27  and  _29
REMARK   13  A    between atoms: _29  and  _30
REMARK   14  A    between atoms: _33  and  _34
REMARK   15  A    between atoms: _39  and  _41
REMARK   16  A    between atoms: _41  and  _42
REMARK   17  A    between atoms: _41  and  _44
REMARK   18  A    between atoms: _44  and  _45
REMARK   19  A    between atoms: _50  and  _51
REMARK   20  A    between atoms: _53  and  _55
REMARK   21  A    between atoms: _55  and  _56
REMARK   22  A    between atoms: _55  and  _58
REMARK   23  A    between atoms: _61  and  _63
REMARK   24  A    between atoms: _63  and  _64
REMARK   25  A    between atoms: _63  and  _66
REMARK   26  A    between atoms: _66  and  _67
REMARK   27  A    between atoms: _70  and  _72
REMARK   28  A    between atoms: _72  and  _73
REMARK   29  A    between atoms: _72  and  _75
REMARK   30  A    between atoms: _75  and  _76
REMARK   31  A    between atoms: _79  and  _81
REMARK   32  A    between atoms: _81  and  _82
REMARK   33  A    between atoms: _81  and  _84
REMARK   34  A    between atoms: _84  and  _85
REMARK   35  A    between atoms: _85  and  _86
REMARK   36  A    between atoms: _86  and  _87
REMARK   37  A    between atoms: _96  and  _98
REMARK   38  A    between atoms: _98  and  _99
REMARK   39  A    between atoms: _101  and  _103
REMARK   40  A    between atoms: _103  and  _104
REMARK   41  A    between atoms: _103  and  _106
REMARK   42  A    between atoms: _106  and  _107
REMARK   43  A    between atoms: _112  and  _113
REMARK   44  A    between atoms: _115  and  _117
REMARK   45  A    between atoms: _117  and  _118
REMARK   46  A    between atoms: _117  and  _120
REMARK   47  A    between atoms: _120  and  _121
REMARK   48  A    between atoms: _124  and  _126
REMARK   49  A    between atoms: _126  and  _127
REMARK   50  A    between atoms: _126  and  _129
REMARK   51  A    between atoms: _129  and  _130
REMARK   52  A    between atoms: _140  and  _142
REMARK   53  A    between atoms: _142  and  _143
REMARK   54  A    between atoms: _142  and  _145
REMARK   55  A    between atoms: _145  and  _146
REMARK   56  A    between atoms: _146  and  _147
REMARK   57  A    between atoms: _152  and  _154
REMARK   58  A    between atoms: _154  and  _155
REMARK   59  A    between atoms: _158  and  _160
REMARK   60  A    between atoms: _160  and  _161
REMARK   61  A    between atoms: _163  and  _165
REMARK   62  A    between atoms: _165  and  _166
REMARK   63  A    between atoms: _165  and  _168
REMARK   64  A    between atoms: _168  and  _169
REMARK   65  A    between atoms: _174  and  _175
REMARK   66  A    between atoms: _177  and  _179
REMARK   67  A    between atoms: _179  and  _180
REMARK   68  A    between atoms: _179  and  _182
REMARK   69  A    between atoms: _182  and  _183
REMARK   70  A    between atoms: _188  and  _190
REMARK   71  A    between atoms: _190  and  _191
REMARK   72  A    between atoms: _190  and  _193
REMARK   73  A    between atoms: _193  and  _194
REMARK   74  A    between atoms: _198  and  _199
REMARK   75  A    between atoms: _204  and  _206
REMARK   76  A    between atoms: _206  and  _207
REMARK   77  A    between atoms: _206  and  _209
REMARK   78  A    between atoms: _209  and  _210
REMARK   79  A    between atoms: _215  and  _216
REMARK   80  A    between atoms: _219  and  _220
REMARK   81  A    between atoms: _225  and  _227
REMARK   82  A    between atoms: _227  and  _228
REMARK   83  A    between atoms: _227  and  _230
REMARK   84  A    between atoms: _230  and  _231
REMARK   85  A    between atoms: _241  and  _243
REMARK   86  A    between atoms: _243  and  _244
REMARK   87  A    between atoms: _243  and  _246
REMARK   88  A    between atoms: _246  and  _247
REMARK   89  A    between atoms: _247  and  _248
REMARK   90  A    between atoms: _248  and  _249
REMARK   91  A    between atoms: _258  and  _260
REMARK   92  A    between atoms: _260  and  _261
REMARK   93  A    between atoms: _260  and  _263
REMARK   94  A    between atoms: _263  and  _264
REMARK   95  A    between atoms: _269  and  _271
REMARK   96  A    between atoms: _271  and  _272
REMARK   97  A    between atoms: _271  and  _274
REMARK   98  A    between atoms: _274  and  _275
REMARK   99  A    between atoms: _275  and  _276
REMARK  100  A    between atoms: _279  and  _281
REMARK  101  A    between atoms: _281  and  _282
REMARK  102  A    between atoms: _281  and  _284
REMARK  103  A    between atoms: _284  and  _285
REMARK  104  A    between atoms: _295  and  _297
REMARK  105  A    between atoms: _297  and  _298
REMARK  106  A    between atoms: _297  and  _300
REMARK  107  A    between atoms: _300  and  _301
REMARK  108  A    between atoms: _304  and  _305
REMARK  109  A    between atoms: _310  and  _312
REMARK  110  A    between atoms: _312  and  _313
REMARK  111  A    between atoms: _316  and  _318
REMARK  112  A    between atoms: _329  and  _332
REMARK  113  A    between atoms: _332  and  _333
REMARK  114  A    between atoms: _338  and  _339
REMARK  115  A    between atoms: _347  and  _349
REMARK  116  A    between atoms: _349  and  _350
REMARK  117  A    between atoms: _349  and  _352
REMARK  118  A    between atoms: _352  and  _353
REMARK  119  A    between atoms: _353  and  _354
REMARK  120  A    between atoms: _359  and  _361
REMARK  121  A    between atoms: _361  and  _362
REMARK  122  A    between atoms: _361  and  _364
REMARK  123  A    between atoms: _364  and  _365
REMARK  124  A    between atoms: _370  and  _371
REMARK  125  A    between atoms: _373  and  _375
REMARK  126  A    between atoms: _375  and  _376
REMARK  127  A    between atoms: _375  and  _378
REMARK  128  A    between atoms: _380  and  _382
REMARK  129  A    between atoms: _382  and  _383
REMARK  130  A    between atoms: _382  and  _385
REMARK  131  A    between atoms: _385  and  _386
REMARK                            x       y       z     vdW  Elec       q    Type
REMARK                         _______ _______ _______ _____ _____    ______ ____
ROOT
ATOM      1  C   PRO A   4       5.293  -6.960  37.019  0.00  0.00    +0.000 C 
ATOM      2  O   PRO A   4       5.571  -8.063  37.524  0.00  0.00    +0.000 OA
ATOM      3  N   ALA A   5       4.222  -6.236  37.368  0.00  0.00    +0.000 N 
ATOM      4  H   ALA A   5       4.037  -5.326  36.900  0.00  0.00    +0.000 HD
ENDROOT
BRANCH   1   8
ATOM      5  C   SER A   3       8.288  -6.989  36.872  0.00  0.00    +0.000 C 
ATOM      6  O   SER A   3       8.090  -6.136  37.751  0.00  0.00    +0.000 OA
ATOM      7  N   PRO A   4       7.435  -7.187  35.888  0.00  0.00    +0.000 N 
ATOM      8  CA  PRO A   4       6.169  -6.414  35.891  0.00  0.00    +0.000 C 
ATOM      9  CB  PRO A   4       5.523  -6.751  34.540  0.00  0.00    +0.000 C 
ATOM     10  CG  PRO A   4       6.261  -8.004  34.021  0.00  0.00    +0.000 C 
ATOM     11  CD  PRO A   4       7.639  -8.008  34.669  0.00  0.00    +0.000 C 
BRANCH   5  12
ATOM     12  CA  SER A   3       9.581  -7.813  36.841  0.00  0.00    +0.000 C 
BRANCH  12  14
ATOM     13  C   TRP A   2      11.425  -6.283  36.786  0.00  0.00    +0.000 C 
ATOM     14  N   SER A   3      10.612  -7.055  37.514  0.00  0.00    +0.000 N 
ATOM     15  H   SER A   3      10.719  -7.109  38.547  0.00  0.00    +0.000 HD
ATOM     16  O   TRP A   2      11.411  -6.312  35.574  0.00  0.00    +0.000 OA
BRANCH  13  17
ATOM     17  CA  TRP A   2      12.456  -5.414  37.521  0.00  0.00    +0.000 C 
BRANCH  17  20
ATOM     18  C   GLU A   1      14.834  -5.902  37.656  0.00  0.00    +0.000 C 
ATOM     19  O   GLU A   1      14.847  -5.820  38.881  0.00  0.00    +0.000 OA
ATOM     20  N   TRP A   2      13.746  -5.693  36.922  0.00  0.00    +0.000 N 
ATOM     21  H   TRP A   2      13.823  -5.731  35.886  0.00  0.00    +0.000 HD
BRANCH  18  22
ATOM     22  CA  GLU A   1      16.135  -6.230  36.922  0.00  0.00    +0.000 C 
BRANCH  22  23
ATOM     23  N   GLU A   1      17.219  -5.498  37.575  0.00  0.00    +0.000 NA
ATOM     24  H   GLU A   1      17.784  -5.979  38.303  0.00  0.00    +0.000 HD
ENDBRANCH  22  23
BRANCH  22  25
ATOM     25  CB  GLU A   1      16.358  -7.746  37.033  0.00  0.00    +0.000 C 
BRANCH  25  26
ATOM     26  CG  GLU A   1      15.819  -8.538  35.776  0.00  0.00    +0.000 C 
BRANCH  26  27
ATOM     27  CD  GLU A   1      16.673  -8.252  34.549  0.00  0.00    +0.000 C 
ATOM     28  OE2 GLU A   1      17.751  -8.852  34.412  0.00  0.00    +0.000 OA
ATOM     29  OE1 GLU A   1      16.267  -7.385  33.711  0.00  0.00    +0.000 OA
ENDBRANCH  26  27
ENDBRANCH  25  26
ENDBRANCH  22  25
ENDBRANCH  18  22
ENDBRANCH  17  20
BRANCH  17  30
ATOM     30  CB  TRP A   2      12.087  -3.910  37.367  0.00  0.00    +0.000 C 
BRANCH  30  31
ATOM     31  CG  TRP A   2      12.848  -3.027  38.305  0.00  0.00    +0.000 A 
ATOM     32  CD2 TRP A   2      12.395  -2.445  39.569  0.00  0.00    +0.000 A 
ATOM     33  CE3 TRP A   2      11.208  -2.499  40.297  0.00  0.00    +0.000 A 
ATOM     34  CZ3 TRP A   2      11.123  -1.765  41.545  0.00  0.00    +0.000 A 
ATOM     35  CH2 TRP A   2      12.215  -1.013  42.008  0.00  0.00    +0.000 A 
ATOM     36  CZ2 TRP A   2      13.406  -0.951  41.289  0.00  0.00    +0.000 A 
ATOM     37  CE2 TRP A   2      13.479  -1.673  40.077  0.00  0.00    +0.000 A 
ATOM     38  NE1 TRP A   2      14.517  -1.799  39.182  0.00  0.00    +0.000 N 
ATOM     39  HE1 TRP A   2      15.451  -1.353  39.282  0.00  0.00    +0.000 HD
ATOM     40  CD1 TRP A   2      14.133  -2.605  38.134  0.00  0.00    +0.000 A 
ENDBRANCH  30  31
ENDBRANCH  17  30
ENDBRANCH  13  17
ENDBRANCH  12  14
BRANCH  12  41
ATOM     41  CB  SER A   3       9.336  -9.150  37.536  0.00  0.00    +0.000 C 
BRANCH  41  42
ATOM     42  OG  SER A   3      10.339 -10.047  37.060  0.00  0.00    +0.000 OA
ATOM     43  H   SER A   3      10.218 -10.932  37.487  0.00  0.00    +0.000 HD
ENDBRANCH  41  42
ENDBRANCH  12  41
ENDBRANCH   5  12
ENDBRANCH   1   8
BRANCH   3  44
ATOM     44  CA  ALA A   5       3.329  -6.711  38.386  0.00  0.00    +0.000 C 
ATOM     45  CB  ALA A   5       2.174  -5.707  38.550  0.00  0.00    +0.000 C 
BRANCH  44  46
ATOM     46  C   ALA A   5       2.776  -8.075  37.972  0.00  0.00    +0.000 C 
ATOM     47  N   UNK A   6       2.760  -9.060  38.879  0.00  0.00    +0.000 N 
ATOM     48  H   UNK A   6       3.120  -8.915  39.844  0.00  0.00    +0.000 HD
ATOM     49  O   ALA A   5       2.363  -8.257  36.803  0.00  0.00    +0.000 OA
BRANCH  47  50
ATOM     50  C   UNK A   6       2.215 -10.349  38.454  0.00  0.00    +0.000 C 
ATOM     51  C   UNK A   6       1.692 -11.194  39.610  0.00  0.00    +0.000 C 
ATOM     52  O   UNK A   6       2.018 -10.974  40.778  0.00  0.00    +0.000 OA
ATOM     53  N   ILE A   7       0.865 -12.173  39.267  0.00  0.00    +0.000 N 
ATOM     54  CA  ILE A   7       0.365 -13.096  40.256  0.00  0.00    +0.000 C 
ATOM     55  C   ILE A   7       0.771 -14.498  39.803  0.00  0.00    +0.000 C 
ATOM     56  N   UNK A   8       1.447 -15.233  40.673  0.00  0.00    +0.000 N 
ATOM     57  H   UNK A   8       1.686 -14.831  41.602  0.00  0.00    +0.000 HD
ATOM     58  C   UNK A   8       1.858 -16.575  40.360  0.00  0.00    +0.000 C 
ATOM     59  C   UNK A   8       2.914 -17.064  41.364  0.00  0.00    +0.000 C 
ATOM     60  C   UNK A   8       4.236 -16.376  41.237  0.00  0.00    +0.000 A 
ATOM     61  C   UNK A   8       4.715 -15.238  41.812  0.00  0.00    +0.000 A 
ATOM     62  N   UNK A   8       5.955 -15.001  41.270  0.00  0.00    +0.000 N 
ATOM     63 FE   UNK A   8       7.124 -13.257  41.535  0.00  0.00    +0.000 Fe
ATOM     64  N   UNK A   8       5.855 -12.167  40.190  0.00  0.00    +0.000 N 
ATOM     65  C   UNK A   8       6.290 -10.987  39.802  0.00  0.00    +0.000 A 
ATOM     66  N   UNK A   8       5.460 -10.530  38.886  0.00  0.00    +0.000 NA
ATOM     67  C   UNK A   8       4.456 -11.445  38.667  0.00  0.00    +0.000 A 
ATOM     68  C   UNK A   8       4.712 -12.484  39.494  0.00  0.00    +0.000 A 
ATOM     69  C   UNK A   8       6.232 -15.958  40.406  0.00  0.00    +0.000 A 
ATOM     70  N   UNK A   8       5.211 -16.800  40.373  0.00  0.00    +0.000 NA
ATOM     71  O   ILE A   7       0.530 -14.886  38.692  0.00  0.00    +0.000 OA
ATOM     72  H   ILE A   7       0.574 -12.276  38.274  0.00  0.00    +0.000 HD
ATOM     73  C   UNK A   8       3.293 -11.169  37.763  0.00  0.00    +0.000 C 
BRANCH  54  74
ATOM     74  CB  ILE A   7      -1.168 -12.979  40.402  0.00  0.00    +0.000 C 
ATOM     75  CG2 ILE A   7      -1.665 -14.109  41.280  0.00  0.00    +0.000 C 
BRANCH  74  76
ATOM     76  CG1 ILE A   7      -1.500 -11.534  40.926  0.00  0.00    +0.000 C 
ATOM     77  CD1 ILE A   7      -3.015 -11.285  41.179  0.00  0.00    +0.000 C 
ENDBRANCH  74  76
ENDBRANCH  54  74
BRANCH  58  78
ATOM     78  C   UNK A   8       0.628 -17.507  40.523  0.00  0.00    +0.000 C 
ATOM     79  O   UNK A   8      -0.205 -17.294  41.397  0.00  0.00    +0.000 OA
ENDBRANCH  58  78
ENDBRANCH  47  50
ENDBRANCH  44  46
ENDBRANCH   3  44
TORSDOF 20
REMARK  Name = ../refined-set-2016/2buv/2buv_pocket.pdb
REMARK  131 active torsions:
REMARK  status: ('A' for Active; 'I' for Inactive)
REMARK    1  A    between atoms: _1  and  _3
REMARK    2  A    between atoms: _3  and  _4
REMARK    3  A    between atoms: _3  and  _6
REMARK    4  A    between atoms: _6  and  _7
REMARK    5  A    between atoms: _7  and  _8
REMARK    6  A    between atoms: _13  and  _15
REMARK    7  A    between atoms: _15  and  _16
REMARK    8  A    between atoms: _15  and  _18
REMARK    9  A    between atoms: _18  and  _19
REMARK   10  A    between atoms: _22  and  _24
REMARK   11  A    between atoms: _24  and  _25
REMARK   12  A    between atoms: _27  and  _29
REMARK   13  A    between atoms: _29  and  _30
REMARK   14  A    between atoms: _33  and  _34
REMARK   15  A    between atoms: _39  and  _41
REMARK   16  A    between atoms: _41  and  _42
REMARK   17  A    between atoms: _41  and  _44
REMARK   18  A    between atoms: _44  and  _45
REMARK   19  A    between atoms: _50  and  _51
REMARK   20  A    between atoms: _53  and  _55
REMARK   21  A    between atoms: _55  and  _56
REMARK   22  A    between atoms: _55  and  _58
REMARK   23  A    between atoms: _61  and  _63
REMARK   24  A    between atoms: _63  and  _64
REMARK   25  A    between atoms: _63  and  _66
REMARK   26  A    between atoms: _66  and  _67
REMARK   27  A    between atoms: _70  and  _72
REMARK   28  A    between atoms: _72  and  _73
REMARK   29  A    between atoms: _72  and  _75
REMARK   30  A    between atoms: _75  and  _76
REMARK   31  A    between atoms: _79  and  _81
REMARK   32  A    between atoms: _81  and  _82
REMARK   33  A    between atoms: _81  and  _84
REMARK   34  A    between atoms: _84  and  _85
REMARK   35  A    between atoms: _85  and  _86
REMARK   36  A    between atoms: _86  and  _87
REMARK   37  A    between atoms: _96  and  _98
REMARK   38  A    between atoms: _98  and  _99
REMARK   39  A    between atoms: _101  and  _103
REMARK   40  A    between atoms: _103  and  _104
REMARK   41  A    between atoms: _103  and  _106
REMARK   42  A    between atoms: _106  and  _107
REMARK   43  A    between atoms: _112  and  _113
REMARK   44  A    between atoms: _115  and  _117
REMARK   45  A    between atoms: _117  and  _118
REMARK   46  A    between atoms: _117  and  _120
REMARK   47  A    between atoms: _120  and  _121
REMARK   48  A    between atoms: _124  and  _126
REMARK   49  A    between atoms: _126  and  _127
REMARK   50  A    between atoms: _126  and  _129
REMARK   51  A    between atoms: _129  and  _130
REMARK   52  A    between atoms: _140  and  _142
REMARK   53  A    between atoms: _142  and  _143
REMARK   54  A    between atoms: _142  and  _145
REMARK   55  A    between atoms: _145  and  _146
REMARK   56  A    between atoms: _146  and  _147
REMARK   57  A    between atoms: _152  and  _154
REMARK   58  A    between atoms: _154  and  _155
REMARK   59  A    between atoms: _158  and  _160
REMARK   60  A    between atoms: _160  and  _161
REMARK   61  A    between atoms: _163  and  _165
REMARK   62  A    between atoms: _165  and  _166
REMARK   63  A    between atoms: _165  and  _168
REMARK   64  A    between atoms: _168  and  _169
REMARK   65  A    between atoms: _174  and  _175
REMARK   66  A    between atoms: _177  and  _179
REMARK   67  A    between atoms: _179  and  _180
REMARK   68  A    between atoms: _179  and  _182
REMARK   69  A    between atoms: _182  and  _183
REMARK   70  A    between atoms: _188  and  _190
REMARK   71  A    between atoms: _190  and  _191
REMARK   72  A    between atoms: _190  and  _193
REMARK   73  A    between atoms: _193  and  _194
REMARK   74  A    between atoms: _198  and  _199
REMARK   75  A    between atoms: _204  and  _206
REMARK   76  A    between atoms: _206  and  _207
REMARK   77  A    between atoms: _206  and  _209
REMARK   78  A    between atoms: _209  and  _210
REMARK   79  A    between atoms: _215  and  _216
REMARK   80  A    between atoms: _219  and  _220
REMARK   81  A    between atoms: _225  and  _227
REMARK   82  A    between atoms: _227  and  _228
REMARK   83  A    between atoms: _227  and  _230
REMARK   84  A    between atoms: _230  and  _231
REMARK   85  A    between atoms: _241  and  _243
REMARK   86  A    between atoms: _243  and  _244
REMARK   87  A    between atoms: _243  and  _246
REMARK   88  A    between atoms: _246  and  _247
REMARK   89  A    between atoms: _247  and  _248
REMARK   90  A    between atoms: _248  and  _249
REMARK   91  A    between atoms: _258  and  _260
REMARK   92  A    between atoms: _260  and  _261
REMARK   93  A    between atoms: _260  and  _263
REMARK   94  A    between atoms: _263  and  _264
REMARK   95  A    between atoms: _269  and  _271
REMARK   96  A    between atoms: _271  and  _272
REMARK   97  A    between atoms: _271  and  _274
REMARK   98  A    between atoms: _274  and  _275
REMARK   99  A    between atoms: _275  and  _276
REMARK  100  A    between atoms: _279  and  _281
REMARK  101  A    between atoms: _281  and  _282
REMARK  102  A    between atoms: _281  and  _284
REMARK  103  A    between atoms: _284  and  _285
REMARK  104  A    between atoms: _295  and  _297
REMARK  105  A    between atoms: _297  and  _298
REMARK  106  A    between atoms: _297  and  _300
REMARK  107  A    between atoms: _300  and  _301
REMARK  108  A    between atoms: _304  and  _305
REMARK  109  A    between atoms: _310  and  _312
REMARK  110  A    between atoms: _312  and  _313
REMARK  111  A    between atoms: _316  and  _318
REMARK  112  A    between atoms: _329  and  _332
REMARK  113  A    between atoms: _332  and  _333
REMARK  114  A    between atoms: _338  and  _339
REMARK  115  A    between atoms: _347  and  _349
REMARK  116  A    between atoms: _349  and  _350
REMARK  117  A    between atoms: _349  and  _352
REMARK  118  A    between atoms: _352  and  _353
REMARK  119  A    between atoms: _353  and  _354
REMARK  120  A    between atoms: _359  and  _361
REMARK  121  A    between atoms: _361  and  _362
REMARK  122  A    between atoms: _361  and  _364
REMARK  123  A    between atoms: _364  and  _365
REMARK  124  A    between atoms: _370  and  _371
REMARK  125  A    between atoms: _373  and  _375
REMARK  126  A    between atoms: _375  and  _376
REMARK  127  A    between atoms: _375  and  _378
REMARK  128  A    between atoms: _380  and  _382
REMARK  129  A    between atoms: _382  and  _383
REMARK  130  A    between atoms: _382  and  _385
REMARK  131  A    between atoms: _385  and  _386
REMARK                            x       y       z     vdW  Elec       q    Type
REMARK                         _______ _______ _______ _____ _____    ______ ____
ROOT
ATOM      1  CB  GLN A   1       3.297 -15.716  36.731  0.00  0.00    +0.035 C 
ENDROOT
BRANCH   1   2
ATOM      2  CA  GLN A   1       2.029 -16.403  36.250  0.00  0.00    +0.134 C 
BRANCH   2   3
ATOM      3  N   GLN A   1       2.347 -17.662  35.617  0.00  0.00    -0.239 NA
ATOM      4  H   GLN A   1       2.433 -17.702  34.581  0.00  0.00    +0.142 HD
ENDBRANCH   2   3
BRANCH   2   5
ATOM      5  C   GLN A   1       1.353 -15.521  35.216  0.00  0.00    +0.224 C 
ATOM      6  O   GLN A   1       1.566 -15.740  34.013  0.00  0.00    -0.287 OA
ENDBRANCH   2   5
ENDBRANCH   1   2
BRANCH   1   7
ATOM      7  CG  GLN A   1       4.273 -15.500  35.609  0.00  0.00    +0.087 C 
BRANCH   7   8
ATOM      8  CD  GLN A   1       5.668 -15.252  36.147  0.00  0.00    +0.219 C 
ATOM      9  OE1 GLN A   1       5.884 -15.287  37.367  0.00  0.00    -0.275 OA
ATOM     10  NE2 GLN A   1       6.634 -15.008  35.242  0.00  0.00    -0.329 N 
ATOM     11 HE21 GLN A   1       7.611 -14.839  35.557  0.00  0.00    +0.145 HD
ATOM     12 HE22 GLN A   1       6.404 -14.989  34.228  0.00  0.00    +0.145 HD
ENDBRANCH   7   8
ENDBRANCH   1   7
TORSDOF 5
REMARK  Name = ../refined-set-2016/2buv/2buv_pocket.pdb
REMARK  131 active torsions:
REMARK  status: ('A' for Active; 'I' for Inactive)
REMARK    1  A    between atoms: _1  and  _3
REMARK    2  A    between atoms: _3  and  _4
REMARK    3  A    between atoms: _3  and  _6
REMARK    4  A    between atoms: _6  and  _7
REMARK    5  A    between atoms: _7  and  _8
REMARK    6  A    between atoms: _13  and  _15
REMARK    7  A    between atoms: _15  and  _16
REMARK    8  A    between atoms: _15  and  _18
REMARK    9  A    between atoms: _18  and  _19
REMARK   10  A    between atoms: _22  and  _24
REMARK   11  A    between atoms: _24  and  _25
REMARK   12  A    between atoms: _27  and  _29
REMARK   13  A    between atoms: _29  and  _30
REMARK   14  A    between atoms: _33  and  _34
REMARK   15  A    between atoms: _39  and  _41
REMARK   16  A    between atoms: _41  and  _42
REMARK   17  A    between atoms: _41  and  _44
REMARK   18  A    between atoms: _44  and  _45
REMARK   19  A    between atoms: _50  and  _51
REMARK   20  A    between atoms: _53  and  _55
REMARK   21  A    between atoms: _55  and  _56
REMARK   22  A    between atoms: _55  and  _58
REMARK   23  A    between atoms: _61  and  _63
REMARK   24  A    between atoms: _63  and  _64
REMARK   25  A    between atoms: _63  and  _66
REMARK   26  A    between atoms: _66  and  _67
REMARK   27  A    between atoms: _70  and  _72
REMARK   28  A    between atoms: _72  and  _73
REMARK   29  A    between atoms: _72  and  _75
REMARK   30  A    between atoms: _75  and  _76
REMARK   31  A    between atoms: _79  and  _81
REMARK   32  A    between atoms: _81  and  _82
REMARK   33  A    between atoms: _81  and  _84
REMARK   34  A    between atoms: _84  and  _85
REMARK   35  A    between atoms: _85  and  _86
REMARK   36  A    between atoms: _86  and  _87
REMARK   37  A    between atoms: _96  and  _98
REMARK   38  A    between atoms: _98  and  _99
REMARK   39  A    between atoms: _101  and  _103
REMARK   40  A    between atoms: _103  and  _104
REMARK   41  A    between atoms: _103  and  _106
REMARK   42  A    between atoms: _106  and  _107
REMARK   43  A    between atoms: _112  and  _113
REMARK   44  A    between atoms: _115  and  _117
REMARK   45  A    between atoms: _117  and  _118
REMARK   46  A    between atoms: _117  and  _120
REMARK   47  A    between atoms: _120  and  _121
REMARK   48  A    between atoms: _124  and  _126
REMARK   49  A    between atoms: _126  and  _127
REMARK   50  A    between atoms: _126  and  _129
REMARK   51  A    between atoms: _129  and  _130
REMARK   52  A    between atoms: _140  and  _142
REMARK   53  A    between atoms: _142  and  _143
REMARK   54  A    between atoms: _142  and  _145
REMARK   55  A    between atoms: _145  and  _146
REMARK   56  A    between atoms: _146  and  _147
REMARK   57  A    between atoms: _152  and  _154
REMARK   58  A    between atoms: _154  and  _155
REMARK   59  A    between atoms: _158  and  _160
REMARK   60  A    between atoms: _160  and  _161
REMARK   61  A    between atoms: _163  and  _165
REMARK   62  A    between atoms: _165  and  _166
REMARK   63  A    between atoms: _165  and  _168
REMARK   64  A    between atoms: _168  and  _169
REMARK   65  A    between atoms: _174  and  _175
REMARK   66  A    between atoms: _177  and  _179
REMARK   67  A    between atoms: _179  and  _180
REMARK   68  A    between atoms: _179  and  _182
REMARK   69  A    between atoms: _182  and  _183
REMARK   70  A    between atoms: _188  and  _190
REMARK   71  A    between atoms: _190  and  _191
REMARK   72  A    between atoms: _190  and  _193
REMARK   73  A    between atoms: _193  and  _194
REMARK   74  A    between atoms: _198  and  _199
REMARK   75  A    between atoms: _204  and  _206
REMARK   76  A    between atoms: _206  and  _207
REMARK   77  A    between atoms: _206  and  _209
REMARK   78  A    between atoms: _209  and  _210
REMARK   79  A    between atoms: _215  and  _216
REMARK   80  A    between atoms: _219  and  _220
REMARK   81  A    between atoms: _225  and  _227
REMARK   82  A    between atoms: _227  and  _228
REMARK   83  A    between atoms: _227  and  _230
REMARK   84  A    between atoms: _230  and  _231
REMARK   85  A    between atoms: _241  and  _243
REMARK   86  A    between atoms: _243  and  _244
REMARK   87  A    between atoms: _243  and  _246
REMARK   88  A    between atoms: _246  and  _247
REMARK   89  A    between atoms: _247  and  _248
REMARK   90  A    between atoms: _248  and  _249
REMARK   91  A    between atoms: _258  and  _260
REMARK   92  A    between atoms: _260  and  _261
REMARK   93  A    between atoms: _260  and  _263
REMARK   94  A    between atoms: _263  and  _264
REMARK   95  A    between atoms: _269  and  _271
REMARK   96  A    between atoms: _271  and  _272
REMARK   97  A    between atoms: _271  and  _274
REMARK   98  A    between atoms: _274  and  _275
REMARK   99  A    between atoms: _275  and  _276
REMARK  100  A    between atoms: _279  and  _281
REMARK  101  A    between atoms: _281  and  _282
REMARK  102  A    between atoms: _281  and  _284
REMARK  103  A    between atoms: _284  and  _285
REMARK  104  A    between atoms: _295  and  _297
REMARK  105  A    between atoms: _297  and  _298
REMARK  106  A    between atoms: _297  and  _300
REMARK  107  A    between atoms: _300  and  _301
REMARK  108  A    between atoms: _304  and  _305
REMARK  109  A    between atoms: _310  and  _312
REMARK  110  A    between atoms: _312  and  _313
REMARK  111  A    between atoms: _316  and  _318
REMARK  112  A    between atoms: _329  and  _332
REMARK  113  A    between atoms: _332  and  _333
REMARK  114  A    between atoms: _338  and  _339
REMARK  115  A    between atoms: _347  and  _349
REMARK  116  A    between atoms: _349  and  _350
REMARK  117  A    between atoms: _349  and  _352
REMARK  118  A    between atoms: _352  and  _353
REMARK  119  A    between atoms: _353  and  _354
REMARK  120  A    between atoms: _359  and  _361
REMARK  121  A    between atoms: _361  and  _362
REMARK  122  A    between atoms: _361  and  _364
REMARK  123  A    between atoms: _364  and  _365
REMARK  124  A    between atoms: _370  and  _371
REMARK  125  A    between atoms: _373  and  _375
REMARK  126  A    between atoms: _375  and  _376
REMARK  127  A    between atoms: _375  and  _378
REMARK  128  A    between atoms: _380  and  _382
REMARK  129  A    between atoms: _382  and  _383
REMARK  130  A    between atoms: _382  and  _385
REMARK  131  A    between atoms: _385  and  _386
REMARK                            x       y       z     vdW  Elec       q    Type
REMARK                         _______ _______ _______ _____ _____    ______ ____
ROOT
ATOM      1  CG  TYR A   1       2.728 -10.482  33.190  0.00  0.00    -0.020 A 
ATOM      2  CD2 TYR A   1       3.738 -10.244  34.126  0.00  0.00    -0.001 A 
ATOM      3  CE2 TYR A   1       4.866 -11.114  34.237  0.00  0.00    +0.036 A 
ATOM      4  CZ  TYR A   1       4.937 -12.220  33.404  0.00  0.00    +0.134 A 
ATOM      5  CE1 TYR A   1       3.921 -12.471  32.462  0.00  0.00    +0.036 A 
ATOM      6  CD1 TYR A   1       2.830 -11.597  32.363  0.00  0.00    -0.001 A 
ENDROOT
BRANCH   4   7
ATOM      7  OH  TYR A   1       5.986 -13.127  33.528  0.00  0.00    -0.506 OA
ATOM      8  HH  TYR A   1       6.613 -12.811  34.226  0.00  0.00    +0.292 HD
ENDBRANCH   4   7
BRANCH   1   9
ATOM      9  CB  TYR A   1       1.540  -9.593  33.116  0.00  0.00    +0.051 C 
BRANCH   9  10
ATOM     10  CA  TYR A   1       0.514  -9.950  34.182  0.00  0.00    +0.137 C 
BRANCH  10  11
ATOM     11  N   TYR A   1       0.171 -11.357  34.032  0.00  0.00    -0.239 NA
ATOM     12  H   TYR A   1      -0.156 -11.691  33.103  0.00  0.00    +0.142 HD
ENDBRANCH  10  11
BRANCH  10  13
ATOM     13  C   TYR A   1      -0.769  -9.141  33.944  0.00  0.00    +0.224 C 
ATOM     14  O   TYR A   1      -1.774  -9.726  33.561  0.00  0.00    -0.287 OA
ENDBRANCH  10  13
ENDBRANCH   9  10
ENDBRANCH   1   9
TORSDOF 5
REMARK  Name = ../refined-set-2016/2buv/2buv_pocket.pdb
REMARK  131 active torsions:
REMARK  status: ('A' for Active; 'I' for Inactive)
REMARK    1  A    between atoms: _1  and  _3
REMARK    2  A    between atoms: _3  and  _4
REMARK    3  A    between atoms: _3  and  _6
REMARK    4  A    between atoms: _6  and  _7
REMARK    5  A    between atoms: _7  and  _8
REMARK    6  A    between atoms: _13  and  _15
REMARK    7  A    between atoms: _15  and  _16
REMARK    8  A    between atoms: _15  and  _18
REMARK    9  A    between atoms: _18  and  _19
REMARK   10  A    between atoms: _22  and  _24
REMARK   11  A    between atoms: _24  and  _25
REMARK   12  A    between atoms: _27  and  _29
REMARK   13  A    between atoms: _29  and  _30
REMARK   14  A    between atoms: _33  and  _34
REMARK   15  A    between atoms: _39  and  _41
REMARK   16  A    between atoms: _41  and  _42
REMARK   17  A    between atoms: _41  and  _44
REMARK   18  A    between atoms: _44  and  _45
REMARK   19  A    between atoms: _50  and  _51
REMARK   20  A    between atoms: _53  and  _55
REMARK   21  A    between atoms: _55  and  _56
REMARK   22  A    between atoms: _55  and  _58
REMARK   23  A    between atoms: _61  and  _63
REMARK   24  A    between atoms: _63  and  _64
REMARK   25  A    between atoms: _63  and  _66
REMARK   26  A    between atoms: _66  and  _67
REMARK   27  A    between atoms: _70  and  _72
REMARK   28  A    between atoms: _72  and  _73
REMARK   29  A    between atoms: _72  and  _75
REMARK   30  A    between atoms: _75  and  _76
REMARK   31  A    between atoms: _79  and  _81
REMARK   32  A    between atoms: _81  and  _82
REMARK   33  A    between atoms: _81  and  _84
REMARK   34  A    between atoms: _84  and  _85
REMARK   35  A    between atoms: _85  and  _86
REMARK   36  A    between atoms: _86  and  _87
REMARK   37  A    between atoms: _96  and  _98
REMARK   38  A    between atoms: _98  and  _99
REMARK   39  A    between atoms: _101  and  _103
REMARK   40  A    between atoms: _103  and  _104
REMARK   41  A    between atoms: _103  and  _106
REMARK   42  A    between atoms: _106  and  _107
REMARK   43  A    between atoms: _112  and  _113
REMARK   44  A    between atoms: _115  and  _117
REMARK   45  A    between atoms: _117  and  _118
REMARK   46  A    between atoms: _117  and  _120
REMARK   47  A    between atoms: _120  and  _121
REMARK   48  A    between atoms: _124  and  _126
REMARK   49  A    between atoms: _126  and  _127
REMARK   50  A    between atoms: _126  and  _129
REMARK   51  A    between atoms: _129  and  _130
REMARK   52  A    between atoms: _140  and  _142
REMARK   53  A    between atoms: _142  and  _143
REMARK   54  A    between atoms: _142  and  _145
REMARK   55  A    between atoms: _145  and  _146
REMARK   56  A    between atoms: _146  and  _147
REMARK   57  A    between atoms: _152  and  _154
REMARK   58  A    between atoms: _154  and  _155
REMARK   59  A    between atoms: _158  and  _160
REMARK   60  A    between atoms: _160  and  _161
REMARK   61  A    between atoms: _163  and  _165
REMARK   62  A    between atoms: _165  and  _166
REMARK   63  A    between atoms: _165  and  _168
REMARK   64  A    between atoms: _168  and  _169
REMARK   65  A    between atoms: _174  and  _175
REMARK   66  A    between atoms: _177  and  _179
REMARK   67  A    between atoms: _179  and  _180
REMARK   68  A    between atoms: _179  and  _182
REMARK   69  A    between atoms: _182  and  _183
REMARK   70  A    between atoms: _188  and  _190
REMARK   71  A    between atoms: _190  and  _191
REMARK   72  A    between atoms: _190  and  _193
REMARK   73  A    between atoms: _193  and  _194
REMARK   74  A    between atoms: _198  and  _199
REMARK   75  A    between atoms: _204  and  _206
REMARK   76  A    between atoms: _206  and  _207
REMARK   77  A    between atoms: _206  and  _209
REMARK   78  A    between atoms: _209  and  _210
REMARK   79  A    between atoms: _215  and  _216
REMARK   80  A    between atoms: _219  and  _220
REMARK   81  A    between atoms: _225  and  _227
REMARK   82  A    between atoms: _227  and  _228
REMARK   83  A    between atoms: _227  and  _230
REMARK   84  A    between atoms: _230  and  _231
REMARK   85  A    between atoms: _241  and  _243
REMARK   86  A    between atoms: _243  and  _244
REMARK   87  A    between atoms: _243  and  _246
REMARK   88  A    between atoms: _246  and  _247
REMARK   89  A    between atoms: _247  and  _248
REMARK   90  A    between atoms: _248  and  _249
REMARK   91  A    between atoms: _258  and  _260
REMARK   92  A    between atoms: _260  and  _261
REMARK   93  A    between atoms: _260  and  _263
REMARK   94  A    between atoms: _263  and  _264
REMARK   95  A    between atoms: _269  and  _271
REMARK   96  A    between atoms: _271  and  _272
REMARK   97  A    between atoms: _271  and  _274
REMARK   98  A    between atoms: _274  and  _275
REMARK   99  A    between atoms: _275  and  _276
REMARK  100  A    between atoms: _279  and  _281
REMARK  101  A    between atoms: _281  and  _282
REMARK  102  A    between atoms: _281  and  _284
REMARK  103  A    between atoms: _284  and  _285
REMARK  104  A    between atoms: _295  and  _297
REMARK  105  A    between atoms: _297  and  _298
REMARK  106  A    between atoms: _297  and  _300
REMARK  107  A    between atoms: _300  and  _301
REMARK  108  A    between atoms: _304  and  _305
REMARK  109  A    between atoms: _310  and  _312
REMARK  110  A    between atoms: _312  and  _313
REMARK  111  A    between atoms: _316  and  _318
REMARK  112  A    between atoms: _329  and  _332
REMARK  113  A    between atoms: _332  and  _333
REMARK  114  A    between atoms: _338  and  _339
REMARK  115  A    between atoms: _347  and  _349
REMARK  116  A    between atoms: _349  and  _350
REMARK  117  A    between atoms: _349  and  _352
REMARK  118  A    between atoms: _352  and  _353
REMARK  119  A    between atoms: _353  and  _354
REMARK  120  A    between atoms: _359  and  _361
REMARK  121  A    between atoms: _361  and  _362
REMARK  122  A    between atoms: _361  and  _364
REMARK  123  A    between atoms: _364  and  _365
REMARK  124  A    between atoms: _370  and  _371
REMARK  125  A    between atoms: _373  and  _375
REMARK  126  A    between atoms: _375  and  _376
REMARK  127  A    between atoms: _375  and  _378
REMARK  128  A    between atoms: _380  and  _382
REMARK  129  A    between atoms: _382  and  _383
REMARK  130  A    between atoms: _382  and  _385
REMARK  131  A    between atoms: _385  and  _386
REMARK                            x       y       z     vdW  Elec       q    Type
REMARK                         _______ _______ _______ _____ _____    ______ ____
ROOT
ATOM      1  CA  CYS A   1      11.172  -9.122  31.610  0.00  0.00    +0.145 C 
ENDROOT
BRANCH   1   2
ATOM      2  N   CYS A   1      10.979  -8.022  30.665  0.00  0.00    -0.238 NA
ATOM      3  H   CYS A   1      10.022  -7.787  30.333  0.00  0.00    +0.142 HD
ENDBRANCH   1   2
BRANCH   1   4
ATOM      4  CB  CYS A   1       9.824  -9.568  32.143  0.00  0.00    +0.094 C 
ATOM      5  SG  CYS A   1      10.022 -10.781  33.444  0.00  0.00    -0.080 S 
ENDBRANCH   1   4
BRANCH   1   6
ATOM      6  C   CYS A   1      11.914 -10.303  31.026  0.00  0.00    +0.225 C 
ATOM      7  O   CYS A   1      11.449 -10.935  30.045  0.00  0.00    -0.287 OA
ENDBRANCH   1   6
TORSDOF 3
REMARK  Name = ../refined-set-2016/2buv/2buv_pocket.pdb
REMARK  131 active torsions:
REMARK  status: ('A' for Active; 'I' for Inactive)
REMARK    1  A    between atoms: _1  and  _3
REMARK    2  A    between atoms: _3  and  _4
REMARK    3  A    between atoms: _3  and  _6
REMARK    4  A    between atoms: _6  and  _7
REMARK    5  A    between atoms: _7  and  _8
REMARK    6  A    between atoms: _13  and  _15
REMARK    7  A    between atoms: _15  and  _16
REMARK    8  A    between atoms: _15  and  _18
REMARK    9  A    between atoms: _18  and  _19
REMARK   10  A    between atoms: _22  and  _24
REMARK   11  A    between atoms: _24  and  _25
REMARK   12  A    between atoms: _27  and  _29
REMARK   13  A    between atoms: _29  and  _30
REMARK   14  A    between atoms: _33  and  _34
REMARK   15  A    between atoms: _39  and  _41
REMARK   16  A    between atoms: _41  and  _42
REMARK   17  A    between atoms: _41  and  _44
REMARK   18  A    between atoms: _44  and  _45
REMARK   19  A    between atoms: _50  and  _51
REMARK   20  A    between atoms: _53  and  _55
REMARK   21  A    between atoms: _55  and  _56
REMARK   22  A    between atoms: _55  and  _58
REMARK   23  A    between atoms: _61  and  _63
REMARK   24  A    between atoms: _63  and  _64
REMARK   25  A    between atoms: _63  and  _66
REMARK   26  A    between atoms: _66  and  _67
REMARK   27  A    between atoms: _70  and  _72
REMARK   28  A    between atoms: _72  and  _73
REMARK   29  A    between atoms: _72  and  _75
REMARK   30  A    between atoms: _75  and  _76
REMARK   31  A    between atoms: _79  and  _81
REMARK   32  A    between atoms: _81  and  _82
REMARK   33  A    between atoms: _81  and  _84
REMARK   34  A    between atoms: _84  and  _85
REMARK   35  A    between atoms: _85  and  _86
REMARK   36  A    between atoms: _86  and  _87
REMARK   37  A    between atoms: _96  and  _98
REMARK   38  A    between atoms: _98  and  _99
REMARK   39  A    between atoms: _101  and  _103
REMARK   40  A    between atoms: _103  and  _104
REMARK   41  A    between atoms: _103  and  _106
REMARK   42  A    between atoms: _106  and  _107
REMARK   43  A    between atoms: _112  and  _113
REMARK   44  A    between atoms: _115  and  _117
REMARK   45  A    between atoms: _117  and  _118
REMARK   46  A    between atoms: _117  and  _120
REMARK   47  A    between atoms: _120  and  _121
REMARK   48  A    between atoms: _124  and  _126
REMARK   49  A    between atoms: _126  and  _127
REMARK   50  A    between atoms: _126  and  _129
REMARK   51  A    between atoms: _129  and  _130
REMARK   52  A    between atoms: _140  and  _142
REMARK   53  A    between atoms: _142  and  _143
REMARK   54  A    between atoms: _142  and  _145
REMARK   55  A    between atoms: _145  and  _146
REMARK   56  A    between atoms: _146  and  _147
REMARK   57  A    between atoms: _152  and  _154
REMARK   58  A    between atoms: _154  and  _155
REMARK   59  A    between atoms: _158  and  _160
REMARK   60  A    between atoms: _160  and  _161
REMARK   61  A    between atoms: _163  and  _165
REMARK   62  A    between atoms: _165  and  _166
REMARK   63  A    between atoms: _165  and  _168
REMARK   64  A    between atoms: _168  and  _169
REMARK   65  A    between atoms: _174  and  _175
REMARK   66  A    between atoms: _177  and  _179
REMARK   67  A    between atoms: _179  and  _180
REMARK   68  A    between atoms: _179  and  _182
REMARK   69  A    between atoms: _182  and  _183
REMARK   70  A    between atoms: _188  and  _190
REMARK   71  A    between atoms: _190  and  _191
REMARK   72  A    between atoms: _190  and  _193
REMARK   73  A    between atoms: _193  and  _194
REMARK   74  A    between atoms: _198  and  _199
REMARK   75  A    between atoms: _204  and  _206
REMARK   76  A    between atoms: _206  and  _207
REMARK   77  A    between atoms: _206  and  _209
REMARK   78  A    between atoms: _209  and  _210
REMARK   79  A    between atoms: _215  and  _216
REMARK   80  A    between atoms: _219  and  _220
REMARK   81  A    between atoms: _225  and  _227
REMARK   82  A    between atoms: _227  and  _228
REMARK   83  A    between atoms: _227  and  _230
REMARK   84  A    between atoms: _230  and  _231
REMARK   85  A    between atoms: _241  and  _243
REMARK   86  A    between atoms: _243  and  _244
REMARK   87  A    between atoms: _243  and  _246
REMARK   88  A    between atoms: _246  and  _247
REMARK   89  A    between atoms: _247  and  _248
REMARK   90  A    between atoms: _248  and  _249
REMARK   91  A    between atoms: _258  and  _260
REMARK   92  A    between atoms: _260  and  _261
REMARK   93  A    between atoms: _260  and  _263
REMARK   94  A    between atoms: _263  and  _264
REMARK   95  A    between atoms: _269  and  _271
REMARK   96  A    between atoms: _271  and  _272
REMARK   97  A    between atoms: _271  and  _274
REMARK   98  A    between atoms: _274  and  _275
REMARK   99  A    between atoms: _275  and  _276
REMARK  100  A    between atoms: _279  and  _281
REMARK  101  A    between atoms: _281  and  _282
REMARK  102  A    between atoms: _281  and  _284
REMARK  103  A    between atoms: _284  and  _285
REMARK  104  A    between atoms: _295  and  _297
REMARK  105  A    between atoms: _297  and  _298
REMARK  106  A    between atoms: _297  and  _300
REMARK  107  A    between atoms: _300  and  _301
REMARK  108  A    between atoms: _304  and  _305
REMARK  109  A    between atoms: _310  and  _312
REMARK  110  A    between atoms: _312  and  _313
REMARK  111  A    between atoms: _316  and  _318
REMARK  112  A    between atoms: _329  and  _332
REMARK  113  A    between atoms: _332  and  _333
REMARK  114  A    between atoms: _338  and  _339
REMARK  115  A    between atoms: _347  and  _349
REMARK  116  A    between atoms: _349  and  _350
REMARK  117  A    between atoms: _349  and  _352
REMARK  118  A    between atoms: _352  and  _353
REMARK  119  A    between atoms: _353  and  _354
REMARK  120  A    between atoms: _359  and  _361
REMARK  121  A    between atoms: _361  and  _362
REMARK  122  A    between atoms: _361  and  _364
REMARK  123  A    between atoms: _364  and  _365
REMARK  124  A    between atoms: _370  and  _371
REMARK  125  A    between atoms: _373  and  _375
REMARK  126  A    between atoms: _375  and  _376
REMARK  127  A    between atoms: _375  and  _378
REMARK  128  A    between atoms: _380  and  _382
REMARK  129  A    between atoms: _382  and  _383
REMARK  130  A    between atoms: _382  and  _385
REMARK  131  A    between atoms: _385  and  _386
REMARK                            x       y       z     vdW  Elec       q    Type
REMARK                         _______ _______ _______ _____ _____    ______ ____
ROOT
ATOM      1  CA  ILE A   1      11.565 -14.524  32.514  0.00  0.00    +0.133 C 
ENDROOT
BRANCH   1   2
ATOM      2  N   ILE A   1      12.238 -13.221  32.326  0.00  0.00    -0.239 NA
ATOM      3  H   ILE A   1      12.059 -12.421  32.966  0.00  0.00    +0.142 HD
ENDBRANCH   1   2
BRANCH   1   4
ATOM      4  CB  ILE A   1      10.948 -14.665  33.935  0.00  0.00    +0.023 C 
ATOM      5  CG2 ILE A   1      10.083 -15.956  34.023  0.00  0.00    +0.002 C 
BRANCH   4   6
ATOM      6  CG1 ILE A   1      12.085 -14.759  34.976  0.00  0.00    +0.002 C 
ATOM      7  CD1 ILE A   1      11.586 -14.590  36.464  0.00  0.00    +0.000 C 
ENDBRANCH   4   6
ENDBRANCH   1   4
BRANCH   1   8
ATOM      8  C   ILE A   1      10.490 -14.680  31.456  0.00  0.00    +0.224 C 
ATOM      9  O   ILE A   1      10.319 -15.778  30.879  0.00  0.00    -0.287 OA
ENDBRANCH   1   8
TORSDOF 4
REMARK  Name = ../refined-set-2016/2buv/2buv_pocket.pdb
REMARK  131 active torsions:
REMARK  status: ('A' for Active; 'I' for Inactive)
REMARK    1  A    between atoms: _1  and  _3
REMARK    2  A    between atoms: _3  and  _4
REMARK    3  A    between atoms: _3  and  _6
REMARK    4  A    between atoms: _6  and  _7
REMARK    5  A    between atoms: _7  and  _8
REMARK    6  A    between atoms: _13  and  _15
REMARK    7  A    between atoms: _15  and  _16
REMARK    8  A    between atoms: _15  and  _18
REMARK    9  A    between atoms: _18  and  _19
REMARK   10  A    between atoms: _22  and  _24
REMARK   11  A    between atoms: _24  and  _25
REMARK   12  A    between atoms: _27  and  _29
REMARK   13  A    between atoms: _29  and  _30
REMARK   14  A    between atoms: _33  and  _34
REMARK   15  A    between atoms: _39  and  _41
REMARK   16  A    between atoms: _41  and  _42
REMARK   17  A    between atoms: _41  and  _44
REMARK   18  A    between atoms: _44  and  _45
REMARK   19  A    between atoms: _50  and  _51
REMARK   20  A    between atoms: _53  and  _55
REMARK   21  A    between atoms: _55  and  _56
REMARK   22  A    between atoms: _55  and  _58
REMARK   23  A    between atoms: _61  and  _63
REMARK   24  A    between atoms: _63  and  _64
REMARK   25  A    between atoms: _63  and  _66
REMARK   26  A    between atoms: _66  and  _67
REMARK   27  A    between atoms: _70  and  _72
REMARK   28  A    between atoms: _72  and  _73
REMARK   29  A    between atoms: _72  and  _75
REMARK   30  A    between atoms: _75  and  _76
REMARK   31  A    between atoms: _79  and  _81
REMARK   32  A    between atoms: _81  and  _82
REMARK   33  A    between atoms: _81  and  _84
REMARK   34  A    between atoms: _84  and  _85
REMARK   35  A    between atoms: _85  and  _86
REMARK   36  A    between atoms: _86  and  _87
REMARK   37  A    between atoms: _96  and  _98
REMARK   38  A    between atoms: _98  and  _99
REMARK   39  A    between atoms: _101  and  _103
REMARK   40  A    between atoms: _103  and  _104
REMARK   41  A    between atoms: _103  and  _106
REMARK   42  A    between atoms: _106  and  _107
REMARK   43  A    between atoms: _112  and  _113
REMARK   44  A    between atoms: _115  and  _117
REMARK   45  A    between atoms: _117  and  _118
REMARK   46  A    between atoms: _117  and  _120
REMARK   47  A    between atoms: _120  and  _121
REMARK   48  A    between atoms: _124  and  _126
REMARK   49  A    between atoms: _126  and  _127
REMARK   50  A    between atoms: _126  and  _129
REMARK   51  A    between atoms: _129  and  _130
REMARK   52  A    between atoms: _140  and  _142
REMARK   53  A    between atoms: _142  and  _143
REMARK   54  A    between atoms: _142  and  _145
REMARK   55  A    between atoms: _145  and  _146
REMARK   56  A    between atoms: _146  and  _147
REMARK   57  A    between atoms: _152  and  _154
REMARK   58  A    between atoms: _154  and  _155
REMARK   59  A    between atoms: _158  and  _160
REMARK   60  A    between atoms: _160  and  _161
REMARK   61  A    between atoms: _163  and  _165
REMARK   62  A    between atoms: _165  and  _166
REMARK   63  A    between atoms: _165  and  _168
REMARK   64  A    between atoms: _168  and  _169
REMARK   65  A    between atoms: _174  and  _175
REMARK   66  A    between atoms: _177  and  _179
REMARK   67  A    between atoms: _179  and  _180
REMARK   68  A    between atoms: _179  and  _182
REMARK   69  A    between atoms: _182  and  _183
REMARK   70  A    between atoms: _188  and  _190
REMARK   71  A    between atoms: _190  and  _191
REMARK   72  A    between atoms: _190  and  _193
REMARK   73  A    between atoms: _193  and  _194
REMARK   74  A    between atoms: _198  and  _199
REMARK   75  A    between atoms: _204  and  _206
REMARK   76  A    between atoms: _206  and  _207
REMARK   77  A    between atoms: _206  and  _209
REMARK   78  A    between atoms: _209  and  _210
REMARK   79  A    between atoms: _215  and  _216
REMARK   80  A    between atoms: _219  and  _220
REMARK   81  A    between atoms: _225  and  _227
REMARK   82  A    between atoms: _227  and  _228
REMARK   83  A    between atoms: _227  and  _230
REMARK   84  A    between atoms: _230  and  _231
REMARK   85  A    between atoms: _241  and  _243
REMARK   86  A    between atoms: _243  and  _244
REMARK   87  A    between atoms: _243  and  _246
REMARK   88  A    between atoms: _246  and  _247
REMARK   89  A    between atoms: _247  and  _248
REMARK   90  A    between atoms: _248  and  _249
REMARK   91  A    between atoms: _258  and  _260
REMARK   92  A    between atoms: _260  and  _261
REMARK   93  A    between atoms: _260  and  _263
REMARK   94  A    between atoms: _263  and  _264
REMARK   95  A    between atoms: _269  and  _271
REMARK   96  A    between atoms: _271  and  _272
REMARK   97  A    between atoms: _271  and  _274
REMARK   98  A    between atoms: _274  and  _275
REMARK   99  A    between atoms: _275  and  _276
REMARK  100  A    between atoms: _279  and  _281
REMARK  101  A    between atoms: _281  and  _282
REMARK  102  A    between atoms: _281  and  _284
REMARK  103  A    between atoms: _284  and  _285
REMARK  104  A    between atoms: _295  and  _297
REMARK  105  A    between atoms: _297  and  _298
REMARK  106  A    between atoms: _297  and  _300
REMARK  107  A    between atoms: _300  and  _301
REMARK  108  A    between atoms: _304  and  _305
REMARK  109  A    between atoms: _310  and  _312
REMARK  110  A    between atoms: _312  and  _313
REMARK  111  A    between atoms: _316  and  _318
REMARK  112  A    between atoms: _329  and  _332
REMARK  113  A    between atoms: _332  and  _333
REMARK  114  A    between atoms: _338  and  _339
REMARK  115  A    between atoms: _347  and  _349
REMARK  116  A    between atoms: _349  and  _350
REMARK  117  A    between atoms: _349  and  _352
REMARK  118  A    between atoms: _352  and  _353
REMARK  119  A    between atoms: _353  and  _354
REMARK  120  A    between atoms: _359  and  _361
REMARK  121  A    between atoms: _361  and  _362
REMARK  122  A    between atoms: _361  and  _364
REMARK  123  A    between atoms: _364  and  _365
REMARK  124  A    between atoms: _370  and  _371
REMARK  125  A    between atoms: _373  and  _375
REMARK  126  A    between atoms: _375  and  _376
REMARK  127  A    between atoms: _375  and  _378
REMARK  128  A    between atoms: _380  and  _382
REMARK  129  A    between atoms: _382  and  _383
REMARK  130  A    between atoms: _382  and  _385
REMARK  131  A    between atoms: _385  and  _386
REMARK                            x       y       z     vdW  Elec       q    Type
REMARK                         _______ _______ _______ _____ _____    ______ ____
ROOT
ATOM      1  O   HOH     1      13.556 -19.178  48.692  0.00  0.00    +0.000 OA
ENDROOT
TORSDOF 0
REMARK  Name = ../refined-set-2016/2buv/2buv_pocket.pdb
REMARK  131 active torsions:
REMARK  status: ('A' for Active; 'I' for Inactive)
REMARK    1  A    between atoms: _1  and  _3
REMARK    2  A    between atoms: _3  and  _4
REMARK    3  A    between atoms: _3  and  _6
REMARK    4  A    between atoms: _6  and  _7
REMARK    5  A    between atoms: _7  and  _8
REMARK    6  A    between atoms: _13  and  _15
REMARK    7  A    between atoms: _15  and  _16
REMARK    8  A    between atoms: _15  and  _18
REMARK    9  A    between atoms: _18  and  _19
REMARK   10  A    between atoms: _22  and  _24
REMARK   11  A    between atoms: _24  and  _25
REMARK   12  A    between atoms: _27  and  _29
REMARK   13  A    between atoms: _29  and  _30
REMARK   14  A    between atoms: _33  and  _34
REMARK   15  A    between atoms: _39  and  _41
REMARK   16  A    between atoms: _41  and  _42
REMARK   17  A    between atoms: _41  and  _44
REMARK   18  A    between atoms: _44  and  _45
REMARK   19  A    between atoms: _50  and  _51
REMARK   20  A    between atoms: _53  and  _55
REMARK   21  A    between atoms: _55  and  _56
REMARK   22  A    between atoms: _55  and  _58
REMARK   23  A    between atoms: _61  and  _63
REMARK   24  A    between atoms: _63  and  _64
REMARK   25  A    between atoms: _63  and  _66
REMARK   26  A    between atoms: _66  and  _67
REMARK   27  A    between atoms: _70  and  _72
REMARK   28  A    between atoms: _72  and  _73
REMARK   29  A    between atoms: _72  and  _75
REMARK   30  A    between atoms: _75  and  _76
REMARK   31  A    between atoms: _79  and  _81
REMARK   32  A    between atoms: _81  and  _82
REMARK   33  A    between atoms: _81  and  _84
REMARK   34  A    between atoms: _84  and  _85
REMARK   35  A    between atoms: _85  and  _86
REMARK   36  A    between atoms: _86  and  _87
REMARK   37  A    between atoms: _96  and  _98
REMARK   38  A    between atoms: _98  and  _99
REMARK   39  A    between atoms: _101  and  _103
REMARK   40  A    between atoms: _103  and  _104
REMARK   41  A    between atoms: _103  and  _106
REMARK   42  A    between atoms: _106  and  _107
REMARK   43  A    between atoms: _112  and  _113
REMARK   44  A    between atoms: _115  and  _117
REMARK   45  A    between atoms: _117  and  _118
REMARK   46  A    between atoms: _117  and  _120
REMARK   47  A    between atoms: _120  and  _121
REMARK   48  A    between atoms: _124  and  _126
REMARK   49  A    between atoms: _126  and  _127
REMARK   50  A    between atoms: _126  and  _129
REMARK   51  A    between atoms: _129  and  _130
REMARK   52  A    between atoms: _140  and  _142
REMARK   53  A    between atoms: _142  and  _143
REMARK   54  A    between atoms: _142  and  _145
REMARK   55  A    between atoms: _145  and  _146
REMARK   56  A    between atoms: _146  and  _147
REMARK   57  A    between atoms: _152  and  _154
REMARK   58  A    between atoms: _154  and  _155
REMARK   59  A    between atoms: _158  and  _160
REMARK   60  A    between atoms: _160  and  _161
REMARK   61  A    between atoms: _163  and  _165
REMARK   62  A    between atoms: _165  and  _166
REMARK   63  A    between atoms: _165  and  _168
REMARK   64  A    between atoms: _168  and  _169
REMARK   65  A    between atoms: _174  and  _175
REMARK   66  A    between atoms: _177  and  _179
REMARK   67  A    between atoms: _179  and  _180
REMARK   68  A    between atoms: _179  and  _182
REMARK   69  A    between atoms: _182  and  _183
REMARK   70  A    between atoms: _188  and  _190
REMARK   71  A    between atoms: _190  and  _191
REMARK   72  A    between atoms: _190  and  _193
REMARK   73  A    between atoms: _193  and  _194
REMARK   74  A    between atoms: _198  and  _199
REMARK   75  A    between atoms: _204  and  _206
REMARK   76  A    between atoms: _206  and  _207
REMARK   77  A    between atoms: _206  and  _209
REMARK   78  A    between atoms: _209  and  _210
REMARK   79  A    between atoms: _215  and  _216
REMARK   80  A    between atoms: _219  and  _220
REMARK   81  A    between atoms: _225  and  _227
REMARK   82  A    between atoms: _227  and  _228
REMARK   83  A    between atoms: _227  and  _230
REMARK   84  A    between atoms: _230  and  _231
REMARK   85  A    between atoms: _241  and  _243
REMARK   86  A    between atoms: _243  and  _244
REMARK   87  A    between atoms: _243  and  _246
REMARK   88  A    between atoms: _246  and  _247
REMARK   89  A    between atoms: _247  and  _248
REMARK   90  A    between atoms: _248  and  _249
REMARK   91  A    between atoms: _258  and  _260
REMARK   92  A    between atoms: _260  and  _261
REMARK   93  A    between atoms: _260  and  _263
REMARK   94  A    between atoms: _263  and  _264
REMARK   95  A    between atoms: _269  and  _271
REMARK   96  A    between atoms: _271  and  _272
REMARK   97  A    between atoms: _271  and  _274
REMARK   98  A    between atoms: _274  and  _275
REMARK   99  A    between atoms: _275  and  _276
REMARK  100  A    between atoms: _279  and  _281
REMARK  101  A    between atoms: _281  and  _282
REMARK  102  A    between atoms: _281  and  _284
REMARK  103  A    between atoms: _284  and  _285
REMARK  104  A    between atoms: _295  and  _297
REMARK  105  A    between atoms: _297  and  _298
REMARK  106  A    between atoms: _297  and  _300
REMARK  107  A    between atoms: _300  and  _301
REMARK  108  A    between atoms: _304  and  _305
REMARK  109  A    between atoms: _310  and  _312
REMARK  110  A    between atoms: _312  and  _313
REMARK  111  A    between atoms: _316  and  _318
REMARK  112  A    between atoms: _329  and  _332
REMARK  113  A    between atoms: _332  and  _333
REMARK  114  A    between atoms: _338  and  _339
REMARK  115  A    between atoms: _347  and  _349
REMARK  116  A    between atoms: _349  and  _350
REMARK  117  A    between atoms: _349  and  _352
REMARK  118  A    between atoms: _352  and  _353
REMARK  119  A    between atoms: _353  and  _354
REMARK  120  A    between atoms: _359  and  _361
REMARK  121  A    between atoms: _361  and  _362
REMARK  122  A    between atoms: _361  and  _364
REMARK  123  A    between atoms: _364  and  _365
REMARK  124  A    between atoms: _370  and  _371
REMARK  125  A    between atoms: _373  and  _375
REMARK  126  A    between atoms: _375  and  _376
REMARK  127  A    between atoms: _375  and  _378
REMARK  128  A    between atoms: _380  and  _382
REMARK  129  A    between atoms: _382  and  _383
REMARK  130  A    between atoms: _382  and  _385
REMARK  131  A    between atoms: _385  and  _386
REMARK                            x       y       z     vdW  Elec       q    Type
REMARK                         _______ _______ _______ _____ _____    ______ ____
ROOT
ATOM      1  O   HOH     1       8.293 -16.810  43.608  0.00  0.00    +0.000 OA
ENDROOT
TORSDOF 0
REMARK  Name = ../refined-set-2016/2buv/2buv_pocket.pdb
REMARK  131 active torsions:
REMARK  status: ('A' for Active; 'I' for Inactive)
REMARK    1  A    between atoms: _1  and  _3
REMARK    2  A    between atoms: _3  and  _4
REMARK    3  A    between atoms: _3  and  _6
REMARK    4  A    between atoms: _6  and  _7
REMARK    5  A    between atoms: _7  and  _8
REMARK    6  A    between atoms: _13  and  _15
REMARK    7  A    between atoms: _15  and  _16
REMARK    8  A    between atoms: _15  and  _18
REMARK    9  A    between atoms: _18  and  _19
REMARK   10  A    between atoms: _22  and  _24
REMARK   11  A    between atoms: _24  and  _25
REMARK   12  A    between atoms: _27  and  _29
REMARK   13  A    between atoms: _29  and  _30
REMARK   14  A    between atoms: _33  and  _34
REMARK   15  A    between atoms: _39  and  _41
REMARK   16  A    between atoms: _41  and  _42
REMARK   17  A    between atoms: _41  and  _44
REMARK   18  A    between atoms: _44  and  _45
REMARK   19  A    between atoms: _50  and  _51
REMARK   20  A    between atoms: _53  and  _55
REMARK   21  A    between atoms: _55  and  _56
REMARK   22  A    between atoms: _55  and  _58
REMARK   23  A    between atoms: _61  and  _63
REMARK   24  A    between atoms: _63  and  _64
REMARK   25  A    between atoms: _63  and  _66
REMARK   26  A    between atoms: _66  and  _67
REMARK   27  A    between atoms: _70  and  _72
REMARK   28  A    between atoms: _72  and  _73
REMARK   29  A    between atoms: _72  and  _75
REMARK   30  A    between atoms: _75  and  _76
REMARK   31  A    between atoms: _79  and  _81
REMARK   32  A    between atoms: _81  and  _82
REMARK   33  A    between atoms: _81  and  _84
REMARK   34  A    between atoms: _84  and  _85
REMARK   35  A    between atoms: _85  and  _86
REMARK   36  A    between atoms: _86  and  _87
REMARK   37  A    between atoms: _96  and  _98
REMARK   38  A    between atoms: _98  and  _99
REMARK   39  A    between atoms: _101  and  _103
REMARK   40  A    between atoms: _103  and  _104
REMARK   41  A    between atoms: _103  and  _106
REMARK   42  A    between atoms: _106  and  _107
REMARK   43  A    between atoms: _112  and  _113
REMARK   44  A    between atoms: _115  and  _117
REMARK   45  A    between atoms: _117  and  _118
REMARK   46  A    between atoms: _117  and  _120
REMARK   47  A    between atoms: _120  and  _121
REMARK   48  A    between atoms: _124  and  _126
REMARK   49  A    between atoms: _126  and  _127
REMARK   50  A    between atoms: _126  and  _129
REMARK   51  A    between atoms: _129  and  _130
REMARK   52  A    between atoms: _140  and  _142
REMARK   53  A    between atoms: _142  and  _143
REMARK   54  A    between atoms: _142  and  _145
REMARK   55  A    between atoms: _145  and  _146
REMARK   56  A    between atoms: _146  and  _147
REMARK   57  A    between atoms: _152  and  _154
REMARK   58  A    between atoms: _154  and  _155
REMARK   59  A    between atoms: _158  and  _160
REMARK   60  A    between atoms: _160  and  _161
REMARK   61  A    between atoms: _163  and  _165
REMARK   62  A    between atoms: _165  and  _166
REMARK   63  A    between atoms: _165  and  _168
REMARK   64  A    between atoms: _168  and  _169
REMARK   65  A    between atoms: _174  and  _175
REMARK   66  A    between atoms: _177  and  _179
REMARK   67  A    between atoms: _179  and  _180
REMARK   68  A    between atoms: _179  and  _182
REMARK   69  A    between atoms: _182  and  _183
REMARK   70  A    between atoms: _188  and  _190
REMARK   71  A    between atoms: _190  and  _191
REMARK   72  A    between atoms: _190  and  _193
REMARK   73  A    between atoms: _193  and  _194
REMARK   74  A    between atoms: _198  and  _199
REMARK   75  A    between atoms: _204  and  _206
REMARK   76  A    between atoms: _206  and  _207
REMARK   77  A    between atoms: _206  and  _209
REMARK   78  A    between atoms: _209  and  _210
REMARK   79  A    between atoms: _215  and  _216
REMARK   80  A    between atoms: _219  and  _220
REMARK   81  A    between atoms: _225  and  _227
REMARK   82  A    between atoms: _227  and  _228
REMARK   83  A    between atoms: _227  and  _230
REMARK   84  A    between atoms: _230  and  _231
REMARK   85  A    between atoms: _241  and  _243
REMARK   86  A    between atoms: _243  and  _244
REMARK   87  A    between atoms: _243  and  _246
REMARK   88  A    between atoms: _246  and  _247
REMARK   89  A    between atoms: _247  and  _248
REMARK   90  A    between atoms: _248  and  _249
REMARK   91  A    between atoms: _258  and  _260
REMARK   92  A    between atoms: _260  and  _261
REMARK   93  A    between atoms: _260  and  _263
REMARK   94  A    between atoms: _263  and  _264
REMARK   95  A    between atoms: _269  and  _271
REMARK   96  A    between atoms: _271  and  _272
REMARK   97  A    between atoms: _271  and  _274
REMARK   98  A    between atoms: _274  and  _275
REMARK   99  A    between atoms: _275  and  _276
REMARK  100  A    between atoms: _279  and  _281
REMARK  101  A    between atoms: _281  and  _282
REMARK  102  A    between atoms: _281  and  _284
REMARK  103  A    between atoms: _284  and  _285
REMARK  104  A    between atoms: _295  and  _297
REMARK  105  A    between atoms: _297  and  _298
REMARK  106  A    between atoms: _297  and  _300
REMARK  107  A    between atoms: _300  and  _301
REMARK  108  A    between atoms: _304  and  _305
REMARK  109  A    between atoms: _310  and  _312
REMARK  110  A    between atoms: _312  and  _313
REMARK  111  A    between atoms: _316  and  _318
REMARK  112  A    between atoms: _329  and  _332
REMARK  113  A    between atoms: _332  and  _333
REMARK  114  A    between atoms: _338  and  _339
REMARK  115  A    between atoms: _347  and  _349
REMARK  116  A    between atoms: _349  and  _350
REMARK  117  A    between atoms: _349  and  _352
REMARK  118  A    between atoms: _352  and  _353
REMARK  119  A    between atoms: _353  and  _354
REMARK  120  A    between atoms: _359  and  _361
REMARK  121  A    between atoms: _361  and  _362
REMARK  122  A    between atoms: _361  and  _364
REMARK  123  A    between atoms: _364  and  _365
REMARK  124  A    between atoms: _370  and  _371
REMARK  125  A    between atoms: _373  and  _375
REMARK  126  A    between atoms: _375  and  _376
REMARK  127  A    between atoms: _375  and  _378
REMARK  128  A    between atoms: _380  and  _382
REMARK  129  A    between atoms: _382  and  _383
REMARK  130  A    between atoms: _382  and  _385
REMARK  131  A    between atoms: _385  and  _386
REMARK                            x       y       z     vdW  Elec       q    Type
REMARK                         _______ _______ _______ _____ _____    ______ ____
ROOT
ATOM      1  O   HOH     1      16.662 -16.488  46.334  0.00  0.00    +0.000 OA
ENDROOT
TORSDOF 0
REMARK  Name = ../refined-set-2016/2buv/2buv_pocket.pdb
REMARK  131 active torsions:
REMARK  status: ('A' for Active; 'I' for Inactive)
REMARK    1  A    between atoms: _1  and  _3
REMARK    2  A    between atoms: _3  and  _4
REMARK    3  A    between atoms: _3  and  _6
REMARK    4  A    between atoms: _6  and  _7
REMARK    5  A    between atoms: _7  and  _8
REMARK    6  A    between atoms: _13  and  _15
REMARK    7  A    between atoms: _15  and  _16
REMARK    8  A    between atoms: _15  and  _18
REMARK    9  A    between atoms: _18  and  _19
REMARK   10  A    between atoms: _22  and  _24
REMARK   11  A    between atoms: _24  and  _25
REMARK   12  A    between atoms: _27  and  _29
REMARK   13  A    between atoms: _29  and  _30
REMARK   14  A    between atoms: _33  and  _34
REMARK   15  A    between atoms: _39  and  _41
REMARK   16  A    between atoms: _41  and  _42
REMARK   17  A    between atoms: _41  and  _44
REMARK   18  A    between atoms: _44  and  _45
REMARK   19  A    between atoms: _50  and  _51
REMARK   20  A    between atoms: _53  and  _55
REMARK   21  A    between atoms: _55  and  _56
REMARK   22  A    between atoms: _55  and  _58
REMARK   23  A    between atoms: _61  and  _63
REMARK   24  A    between atoms: _63  and  _64
REMARK   25  A    between atoms: _63  and  _66
REMARK   26  A    between atoms: _66  and  _67
REMARK   27  A    between atoms: _70  and  _72
REMARK   28  A    between atoms: _72  and  _73
REMARK   29  A    between atoms: _72  and  _75
REMARK   30  A    between atoms: _75  and  _76
REMARK   31  A    between atoms: _79  and  _81
REMARK   32  A    between atoms: _81  and  _82
REMARK   33  A    between atoms: _81  and  _84
REMARK   34  A    between atoms: _84  and  _85
REMARK   35  A    between atoms: _85  and  _86
REMARK   36  A    between atoms: _86  and  _87
REMARK   37  A    between atoms: _96  and  _98
REMARK   38  A    between atoms: _98  and  _99
REMARK   39  A    between atoms: _101  and  _103
REMARK   40  A    between atoms: _103  and  _104
REMARK   41  A    between atoms: _103  and  _106
REMARK   42  A    between atoms: _106  and  _107
REMARK   43  A    between atoms: _112  and  _113
REMARK   44  A    between atoms: _115  and  _117
REMARK   45  A    between atoms: _117  and  _118
REMARK   46  A    between atoms: _117  and  _120
REMARK   47  A    between atoms: _120  and  _121
REMARK   48  A    between atoms: _124  and  _126
REMARK   49  A    between atoms: _126  and  _127
REMARK   50  A    between atoms: _126  and  _129
REMARK   51  A    between atoms: _129  and  _130
REMARK   52  A    between atoms: _140  and  _142
REMARK   53  A    between atoms: _142  and  _143
REMARK   54  A    between atoms: _142  and  _145
REMARK   55  A    between atoms: _145  and  _146
REMARK   56  A    between atoms: _146  and  _147
REMARK   57  A    between atoms: _152  and  _154
REMARK   58  A    between atoms: _154  and  _155
REMARK   59  A    between atoms: _158  and  _160
REMARK   60  A    between atoms: _160  and  _161
REMARK   61  A    between atoms: _163  and  _165
REMARK   62  A    between atoms: _165  and  _166
REMARK   63  A    between atoms: _165  and  _168
REMARK   64  A    between atoms: _168  and  _169
REMARK   65  A    between atoms: _174  and  _175
REMARK   66  A    between atoms: _177  and  _179
REMARK   67  A    between atoms: _179  and  _180
REMARK   68  A    between atoms: _179  and  _182
REMARK   69  A    between atoms: _182  and  _183
REMARK   70  A    between atoms: _188  and  _190
REMARK   71  A    between atoms: _190  and  _191
REMARK   72  A    between atoms: _190  and  _193
REMARK   73  A    between atoms: _193  and  _194
REMARK   74  A    between atoms: _198  and  _199
REMARK   75  A    between atoms: _204  and  _206
REMARK   76  A    between atoms: _206  and  _207
REMARK   77  A    between atoms: _206  and  _209
REMARK   78  A    between atoms: _209  and  _210
REMARK   79  A    between atoms: _215  and  _216
REMARK   80  A    between atoms: _219  and  _220
REMARK   81  A    between atoms: _225  and  _227
REMARK   82  A    between atoms: _227  and  _228
REMARK   83  A    between atoms: _227  and  _230
REMARK   84  A    between atoms: _230  and  _231
REMARK   85  A    between atoms: _241  and  _243
REMARK   86  A    between atoms: _243  and  _244
REMARK   87  A    between atoms: _243  and  _246
REMARK   88  A    between atoms: _246  and  _247
REMARK   89  A    between atoms: _247  and  _248
REMARK   90  A    between atoms: _248  and  _249
REMARK   91  A    between atoms: _258  and  _260
REMARK   92  A    between atoms: _260  and  _261
REMARK   93  A    between atoms: _260  and  _263
REMARK   94  A    between atoms: _263  and  _264
REMARK   95  A    between atoms: _269  and  _271
REMARK   96  A    between atoms: _271  and  _272
REMARK   97  A    between atoms: _271  and  _274
REMARK   98  A    between atoms: _274  and  _275
REMARK   99  A    between atoms: _275  and  _276
REMARK  100  A    between atoms: _279  and  _281
REMARK  101  A    between atoms: _281  and  _282
REMARK  102  A    between atoms: _281  and  _284
REMARK  103  A    between atoms: _284  and  _285
REMARK  104  A    between atoms: _295  and  _297
REMARK  105  A    between atoms: _297  and  _298
REMARK  106  A    between atoms: _297  and  _300
REMARK  107  A    between atoms: _300  and  _301
REMARK  108  A    between atoms: _304  and  _305
REMARK  109  A    between atoms: _310  and  _312
REMARK  110  A    between atoms: _312  and  _313
REMARK  111  A    between atoms: _316  and  _318
REMARK  112  A    between atoms: _329  and  _332
REMARK  113  A    between atoms: _332  and  _333
REMARK  114  A    between atoms: _338  and  _339
REMARK  115  A    between atoms: _347  and  _349
REMARK  116  A    between atoms: _349  and  _350
REMARK  117  A    between atoms: _349  and  _352
REMARK  118  A    between atoms: _352  and  _353
REMARK  119  A    between atoms: _353  and  _354
REMARK  120  A    between atoms: _359  and  _361
REMARK  121  A    between atoms: _361  and  _362
REMARK  122  A    between atoms: _361  and  _364
REMARK  123  A    between atoms: _364  and  _365
REMARK  124  A    between atoms: _370  and  _371
REMARK  125  A    between atoms: _373  and  _375
REMARK  126  A    between atoms: _375  and  _376
REMARK  127  A    between atoms: _375  and  _378
REMARK  128  A    between atoms: _380  and  _382
REMARK  129  A    between atoms: _382  and  _383
REMARK  130  A    between atoms: _382  and  _385
REMARK  131  A    between atoms: _385  and  _386
REMARK                            x       y       z     vdW  Elec       q    Type
REMARK                         _______ _______ _______ _____ _____    ______ ____
ROOT
ATOM      1  O   HOH     1      15.861 -19.015  47.118  0.00  0.00    +0.000 OA
ENDROOT
TORSDOF 0
REMARK  Name = ../refined-set-2016/2buv/2buv_pocket.pdb
REMARK  131 active torsions:
REMARK  status: ('A' for Active; 'I' for Inactive)
REMARK    1  A    between atoms: _1  and  _3
REMARK    2  A    between atoms: _3  and  _4
REMARK    3  A    between atoms: _3  and  _6
REMARK    4  A    between atoms: _6  and  _7
REMARK    5  A    between atoms: _7  and  _8
REMARK    6  A    between atoms: _13  and  _15
REMARK    7  A    between atoms: _15  and  _16
REMARK    8  A    between atoms: _15  and  _18
REMARK    9  A    between atoms: _18  and  _19
REMARK   10  A    between atoms: _22  and  _24
REMARK   11  A    between atoms: _24  and  _25
REMARK   12  A    between atoms: _27  and  _29
REMARK   13  A    between atoms: _29  and  _30
REMARK   14  A    between atoms: _33  and  _34
REMARK   15  A    between atoms: _39  and  _41
REMARK   16  A    between atoms: _41  and  _42
REMARK   17  A    between atoms: _41  and  _44
REMARK   18  A    between atoms: _44  and  _45
REMARK   19  A    between atoms: _50  and  _51
REMARK   20  A    between atoms: _53  and  _55
REMARK   21  A    between atoms: _55  and  _56
REMARK   22  A    between atoms: _55  and  _58
REMARK   23  A    between atoms: _61  and  _63
REMARK   24  A    between atoms: _63  and  _64
REMARK   25  A    between atoms: _63  and  _66
REMARK   26  A    between atoms: _66  and  _67
REMARK   27  A    between atoms: _70  and  _72
REMARK   28  A    between atoms: _72  and  _73
REMARK   29  A    between atoms: _72  and  _75
REMARK   30  A    between atoms: _75  and  _76
REMARK   31  A    between atoms: _79  and  _81
REMARK   32  A    between atoms: _81  and  _82
REMARK   33  A    between atoms: _81  and  _84
REMARK   34  A    between atoms: _84  and  _85
REMARK   35  A    between atoms: _85  and  _86
REMARK   36  A    between atoms: _86  and  _87
REMARK   37  A    between atoms: _96  and  _98
REMARK   38  A    between atoms: _98  and  _99
REMARK   39  A    between atoms: _101  and  _103
REMARK   40  A    between atoms: _103  and  _104
REMARK   41  A    between atoms: _103  and  _106
REMARK   42  A    between atoms: _106  and  _107
REMARK   43  A    between atoms: _112  and  _113
REMARK   44  A    between atoms: _115  and  _117
REMARK   45  A    between atoms: _117  and  _118
REMARK   46  A    between atoms: _117  and  _120
REMARK   47  A    between atoms: _120  and  _121
REMARK   48  A    between atoms: _124  and  _126
REMARK   49  A    between atoms: _126  and  _127
REMARK   50  A    between atoms: _126  and  _129
REMARK   51  A    between atoms: _129  and  _130
REMARK   52  A    between atoms: _140  and  _142
REMARK   53  A    between atoms: _142  and  _143
REMARK   54  A    between atoms: _142  and  _145
REMARK   55  A    between atoms: _145  and  _146
REMARK   56  A    between atoms: _146  and  _147
REMARK   57  A    between atoms: _152  and  _154
REMARK   58  A    between atoms: _154  and  _155
REMARK   59  A    between atoms: _158  and  _160
REMARK   60  A    between atoms: _160  and  _161
REMARK   61  A    between atoms: _163  and  _165
REMARK   62  A    between atoms: _165  and  _166
REMARK   63  A    between atoms: _165  and  _168
REMARK   64  A    between atoms: _168  and  _169
REMARK   65  A    between atoms: _174  and  _175
REMARK   66  A    between atoms: _177  and  _179
REMARK   67  A    between atoms: _179  and  _180
REMARK   68  A    between atoms: _179  and  _182
REMARK   69  A    between atoms: _182  and  _183
REMARK   70  A    between atoms: _188  and  _190
REMARK   71  A    between atoms: _190  and  _191
REMARK   72  A    between atoms: _190  and  _193
REMARK   73  A    between atoms: _193  and  _194
REMARK   74  A    between atoms: _198  and  _199
REMARK   75  A    between atoms: _204  and  _206
REMARK   76  A    between atoms: _206  and  _207
REMARK   77  A    between atoms: _206  and  _209
REMARK   78  A    between atoms: _209  and  _210
REMARK   79  A    between atoms: _215  and  _216
REMARK   80  A    between atoms: _219  and  _220
REMARK   81  A    between atoms: _225  and  _227
REMARK   82  A    between atoms: _227  and  _228
REMARK   83  A    between atoms: _227  and  _230
REMARK   84  A    between atoms: _230  and  _231
REMARK   85  A    between atoms: _241  and  _243
REMARK   86  A    between atoms: _243  and  _244
REMARK   87  A    between atoms: _243  and  _246
REMARK   88  A    between atoms: _246  and  _247
REMARK   89  A    between atoms: _247  and  _248
REMARK   90  A    between atoms: _248  and  _249
REMARK   91  A    between atoms: _258  and  _260
REMARK   92  A    between atoms: _260  and  _261
REMARK   93  A    between atoms: _260  and  _263
REMARK   94  A    between atoms: _263  and  _264
REMARK   95  A    between atoms: _269  and  _271
REMARK   96  A    between atoms: _271  and  _272
REMARK   97  A    between atoms: _271  and  _274
REMARK   98  A    between atoms: _274  and  _275
REMARK   99  A    between atoms: _275  and  _276
REMARK  100  A    between atoms: _279  and  _281
REMARK  101  A    between atoms: _281  and  _282
REMARK  102  A    between atoms: _281  and  _284
REMARK  103  A    between atoms: _284  and  _285
REMARK  104  A    between atoms: _295  and  _297
REMARK  105  A    between atoms: _297  and  _298
REMARK  106  A    between atoms: _297  and  _300
REMARK  107  A    between atoms: _300  and  _301
REMARK  108  A    between atoms: _304  and  _305
REMARK  109  A    between atoms: _310  and  _312
REMARK  110  A    between atoms: _312  and  _313
REMARK  111  A    between atoms: _316  and  _318
REMARK  112  A    between atoms: _329  and  _332
REMARK  113  A    between atoms: _332  and  _333
REMARK  114  A    between atoms: _338  and  _339
REMARK  115  A    between atoms: _347  and  _349
REMARK  116  A    between atoms: _349  and  _350
REMARK  117  A    between atoms: _349  and  _352
REMARK  118  A    between atoms: _352  and  _353
REMARK  119  A    between atoms: _353  and  _354
REMARK  120  A    between atoms: _359  and  _361
REMARK  121  A    between atoms: _361  and  _362
REMARK  122  A    between atoms: _361  and  _364
REMARK  123  A    between atoms: _364  and  _365
REMARK  124  A    between atoms: _370  and  _371
REMARK  125  A    between atoms: _373  and  _375
REMARK  126  A    between atoms: _375  and  _376
REMARK  127  A    between atoms: _375  and  _378
REMARK  128  A    between atoms: _380  and  _382
REMARK  129  A    between atoms: _382  and  _383
REMARK  130  A    between atoms: _382  and  _385
REMARK  131  A    between atoms: _385  and  _386
REMARK                            x       y       z     vdW  Elec       q    Type
REMARK                         _______ _______ _______ _____ _____    ______ ____
ROOT
ATOM      1  O   HOH     1      12.235 -22.047  44.362  0.00  0.00    +0.000 OA
ENDROOT
TORSDOF 0
REMARK  Name = ../refined-set-2016/2buv/2buv_pocket.pdb
REMARK  131 active torsions:
REMARK  status: ('A' for Active; 'I' for Inactive)
REMARK    1  A    between atoms: _1  and  _3
REMARK    2  A    between atoms: _3  and  _4
REMARK    3  A    between atoms: _3  and  _6
REMARK    4  A    between atoms: _6  and  _7
REMARK    5  A    between atoms: _7  and  _8
REMARK    6  A    between atoms: _13  and  _15
REMARK    7  A    between atoms: _15  and  _16
REMARK    8  A    between atoms: _15  and  _18
REMARK    9  A    between atoms: _18  and  _19
REMARK   10  A    between atoms: _22  and  _24
REMARK   11  A    between atoms: _24  and  _25
REMARK   12  A    between atoms: _27  and  _29
REMARK   13  A    between atoms: _29  and  _30
REMARK   14  A    between atoms: _33  and  _34
REMARK   15  A    between atoms: _39  and  _41
REMARK   16  A    between atoms: _41  and  _42
REMARK   17  A    between atoms: _41  and  _44
REMARK   18  A    between atoms: _44  and  _45
REMARK   19  A    between atoms: _50  and  _51
REMARK   20  A    between atoms: _53  and  _55
REMARK   21  A    between atoms: _55  and  _56
REMARK   22  A    between atoms: _55  and  _58
REMARK   23  A    between atoms: _61  and  _63
REMARK   24  A    between atoms: _63  and  _64
REMARK   25  A    between atoms: _63  and  _66
REMARK   26  A    between atoms: _66  and  _67
REMARK   27  A    between atoms: _70  and  _72
REMARK   28  A    between atoms: _72  and  _73
REMARK   29  A    between atoms: _72  and  _75
REMARK   30  A    between atoms: _75  and  _76
REMARK   31  A    between atoms: _79  and  _81
REMARK   32  A    between atoms: _81  and  _82
REMARK   33  A    between atoms: _81  and  _84
REMARK   34  A    between atoms: _84  and  _85
REMARK   35  A    between atoms: _85  and  _86
REMARK   36  A    between atoms: _86  and  _87
REMARK   37  A    between atoms: _96  and  _98
REMARK   38  A    between atoms: _98  and  _99
REMARK   39  A    between atoms: _101  and  _103
REMARK   40  A    between atoms: _103  and  _104
REMARK   41  A    between atoms: _103  and  _106
REMARK   42  A    between atoms: _106  and  _107
REMARK   43  A    between atoms: _112  and  _113
REMARK   44  A    between atoms: _115  and  _117
REMARK   45  A    between atoms: _117  and  _118
REMARK   46  A    between atoms: _117  and  _120
REMARK   47  A    between atoms: _120  and  _121
REMARK   48  A    between atoms: _124  and  _126
REMARK   49  A    between atoms: _126  and  _127
REMARK   50  A    between atoms: _126  and  _129
REMARK   51  A    between atoms: _129  and  _130
REMARK   52  A    between atoms: _140  and  _142
REMARK   53  A    between atoms: _142  and  _143
REMARK   54  A    between atoms: _142  and  _145
REMARK   55  A    between atoms: _145  and  _146
REMARK   56  A    between atoms: _146  and  _147
REMARK   57  A    between atoms: _152  and  _154
REMARK   58  A    between atoms: _154  and  _155
REMARK   59  A    between atoms: _158  and  _160
REMARK   60  A    between atoms: _160  and  _161
REMARK   61  A    between atoms: _163  and  _165
REMARK   62  A    between atoms: _165  and  _166
REMARK   63  A    between atoms: _165  and  _168
REMARK   64  A    between atoms: _168  and  _169
REMARK   65  A    between atoms: _174  and  _175
REMARK   66  A    between atoms: _177  and  _179
REMARK   67  A    between atoms: _179  and  _180
REMARK   68  A    between atoms: _179  and  _182
REMARK   69  A    between atoms: _182  and  _183
REMARK   70  A    between atoms: _188  and  _190
REMARK   71  A    between atoms: _190  and  _191
REMARK   72  A    between atoms: _190  and  _193
REMARK   73  A    between atoms: _193  and  _194
REMARK   74  A    between atoms: _198  and  _199
REMARK   75  A    between atoms: _204  and  _206
REMARK   76  A    between atoms: _206  and  _207
REMARK   77  A    between atoms: _206  and  _209
REMARK   78  A    between atoms: _209  and  _210
REMARK   79  A    between atoms: _215  and  _216
REMARK   80  A    between atoms: _219  and  _220
REMARK   81  A    between atoms: _225  and  _227
REMARK   82  A    between atoms: _227  and  _228
REMARK   83  A    between atoms: _227  and  _230
REMARK   84  A    between atoms: _230  and  _231
REMARK   85  A    between atoms: _241  and  _243
REMARK   86  A    between atoms: _243  and  _244
REMARK   87  A    between atoms: _243  and  _246
REMARK   88  A    between atoms: _246  and  _247
REMARK   89  A    between atoms: _247  and  _248
REMARK   90  A    between atoms: _248  and  _249
REMARK   91  A    between atoms: _258  and  _260
REMARK   92  A    between atoms: _260  and  _261
REMARK   93  A    between atoms: _260  and  _263
REMARK   94  A    between atoms: _263  and  _264
REMARK   95  A    between atoms: _269  and  _271
REMARK   96  A    between atoms: _271  and  _272
REMARK   97  A    between atoms: _271  and  _274
REMARK   98  A    between atoms: _274  and  _275
REMARK   99  A    between atoms: _275  and  _276
REMARK  100  A    between atoms: _279  and  _281
REMARK  101  A    between atoms: _281  and  _282
REMARK  102  A    between atoms: _281  and  _284
REMARK  103  A    between atoms: _284  and  _285
REMARK  104  A    between atoms: _295  and  _297
REMARK  105  A    between atoms: _297  and  _298
REMARK  106  A    between atoms: _297  and  _300
REMARK  107  A    between atoms: _300  and  _301
REMARK  108  A    between atoms: _304  and  _305
REMARK  109  A    between atoms: _310  and  _312
REMARK  110  A    between atoms: _312  and  _313
REMARK  111  A    between atoms: _316  and  _318
REMARK  112  A    between atoms: _329  and  _332
REMARK  113  A    between atoms: _332  and  _333
REMARK  114  A    between atoms: _338  and  _339
REMARK  115  A    between atoms: _347  and  _349
REMARK  116  A    between atoms: _349  and  _350
REMARK  117  A    between atoms: _349  and  _352
REMARK  118  A    between atoms: _352  and  _353
REMARK  119  A    between atoms: _353  and  _354
REMARK  120  A    between atoms: _359  and  _361
REMARK  121  A    between atoms: _361  and  _362
REMARK  122  A    between atoms: _361  and  _364
REMARK  123  A    between atoms: _364  and  _365
REMARK  124  A    between atoms: _370  and  _371
REMARK  125  A    between atoms: _373  and  _375
REMARK  126  A    between atoms: _375  and  _376
REMARK  127  A    between atoms: _375  and  _378
REMARK  128  A    between atoms: _380  and  _382
REMARK  129  A    between atoms: _382  and  _383
REMARK  130  A    between atoms: _382  and  _385
REMARK  131  A    between atoms: _385  and  _386
REMARK                            x       y       z     vdW  Elec       q    Type
REMARK                         _______ _______ _______ _____ _____    ______ ____
ROOT
ATOM      1  O   HOH     1      17.990 -15.280  42.022  0.00  0.00    +0.000 OA
ENDROOT
TORSDOF 0
REMARK  Name = ../refined-set-2016/2buv/2buv_pocket.pdb
REMARK  131 active torsions:
REMARK  status: ('A' for Active; 'I' for Inactive)
REMARK    1  A    between atoms: _1  and  _3
REMARK    2  A    between atoms: _3  and  _4
REMARK    3  A    between atoms: _3  and  _6
REMARK    4  A    between atoms: _6  and  _7
REMARK    5  A    between atoms: _7  and  _8
REMARK    6  A    between atoms: _13  and  _15
REMARK    7  A    between atoms: _15  and  _16
REMARK    8  A    between atoms: _15  and  _18
REMARK    9  A    between atoms: _18  and  _19
REMARK   10  A    between atoms: _22  and  _24
REMARK   11  A    between atoms: _24  and  _25
REMARK   12  A    between atoms: _27  and  _29
REMARK   13  A    between atoms: _29  and  _30
REMARK   14  A    between atoms: _33  and  _34
REMARK   15  A    between atoms: _39  and  _41
REMARK   16  A    between atoms: _41  and  _42
REMARK   17  A    between atoms: _41  and  _44
REMARK   18  A    between atoms: _44  and  _45
REMARK   19  A    between atoms: _50  and  _51
REMARK   20  A    between atoms: _53  and  _55
REMARK   21  A    between atoms: _55  and  _56
REMARK   22  A    between atoms: _55  and  _58
REMARK   23  A    between atoms: _61  and  _63
REMARK   24  A    between atoms: _63  and  _64
REMARK   25  A    between atoms: _63  and  _66
REMARK   26  A    between atoms: _66  and  _67
REMARK   27  A    between atoms: _70  and  _72
REMARK   28  A    between atoms: _72  and  _73
REMARK   29  A    between atoms: _72  and  _75
REMARK   30  A    between atoms: _75  and  _76
REMARK   31  A    between atoms: _79  and  _81
REMARK   32  A    between atoms: _81  and  _82
REMARK   33  A    between atoms: _81  and  _84
REMARK   34  A    between atoms: _84  and  _85
REMARK   35  A    between atoms: _85  and  _86
REMARK   36  A    between atoms: _86  and  _87
REMARK   37  A    between atoms: _96  and  _98
REMARK   38  A    between atoms: _98  and  _99
REMARK   39  A    between atoms: _101  and  _103
REMARK   40  A    between atoms: _103  and  _104
REMARK   41  A    between atoms: _103  and  _106
REMARK   42  A    between atoms: _106  and  _107
REMARK   43  A    between atoms: _112  and  _113
REMARK   44  A    between atoms: _115  and  _117
REMARK   45  A    between atoms: _117  and  _118
REMARK   46  A    between atoms: _117  and  _120
REMARK   47  A    between atoms: _120  and  _121
REMARK   48  A    between atoms: _124  and  _126
REMARK   49  A    between atoms: _126  and  _127
REMARK   50  A    between atoms: _126  and  _129
REMARK   51  A    between atoms: _129  and  _130
REMARK   52  A    between atoms: _140  and  _142
REMARK   53  A    between atoms: _142  and  _143
REMARK   54  A    between atoms: _142  and  _145
REMARK   55  A    between atoms: _145  and  _146
REMARK   56  A    between atoms: _146  and  _147
REMARK   57  A    between atoms: _152  and  _154
REMARK   58  A    between atoms: _154  and  _155
REMARK   59  A    between atoms: _158  and  _160
REMARK   60  A    between atoms: _160  and  _161
REMARK   61  A    between atoms: _163  and  _165
REMARK   62  A    between atoms: _165  and  _166
REMARK   63  A    between atoms: _165  and  _168
REMARK   64  A    between atoms: _168  and  _169
REMARK   65  A    between atoms: _174  and  _175
REMARK   66  A    between atoms: _177  and  _179
REMARK   67  A    between atoms: _179  and  _180
REMARK   68  A    between atoms: _179  and  _182
REMARK   69  A    between atoms: _182  and  _183
REMARK   70  A    between atoms: _188  and  _190
REMARK   71  A    between atoms: _190  and  _191
REMARK   72  A    between atoms: _190  and  _193
REMARK   73  A    between atoms: _193  and  _194
REMARK   74  A    between atoms: _198  and  _199
REMARK   75  A    between atoms: _204  and  _206
REMARK   76  A    between atoms: _206  and  _207
REMARK   77  A    between atoms: _206  and  _209
REMARK   78  A    between atoms: _209  and  _210
REMARK   79  A    between atoms: _215  and  _216
REMARK   80  A    between atoms: _219  and  _220
REMARK   81  A    between atoms: _225  and  _227
REMARK   82  A    between atoms: _227  and  _228
REMARK   83  A    between atoms: _227  and  _230
REMARK   84  A    between atoms: _230  and  _231
REMARK   85  A    between atoms: _241  and  _243
REMARK   86  A    between atoms: _243  and  _244
REMARK   87  A    between atoms: _243  and  _246
REMARK   88  A    between atoms: _246  and  _247
REMARK   89  A    between atoms: _247  and  _248
REMARK   90  A    between atoms: _248  and  _249
REMARK   91  A    between atoms: _258  and  _260
REMARK   92  A    between atoms: _260  and  _261
REMARK   93  A    between atoms: _260  and  _263
REMARK   94  A    between atoms: _263  and  _264
REMARK   95  A    between atoms: _269  and  _271
REMARK   96  A    between atoms: _271  and  _272
REMARK   97  A    between atoms: _271  and  _274
REMARK   98  A    between atoms: _274  and  _275
REMARK   99  A    between atoms: _275  and  _276
REMARK  100  A    between atoms: _279  and  _281
REMARK  101  A    between atoms: _281  and  _282
REMARK  102  A    between atoms: _281  and  _284
REMARK  103  A    between atoms: _284  and  _285
REMARK  104  A    between atoms: _295  and  _297
REMARK  105  A    between atoms: _297  and  _298
REMARK  106  A    between atoms: _297  and  _300
REMARK  107  A    between atoms: _300  and  _301
REMARK  108  A    between atoms: _304  and  _305
REMARK  109  A    between atoms: _310  and  _312
REMARK  110  A    between atoms: _312  and  _313
REMARK  111  A    between atoms: _316  and  _318
REMARK  112  A    between atoms: _329  and  _332
REMARK  113  A    between atoms: _332  and  _333
REMARK  114  A    between atoms: _338  and  _339
REMARK  115  A    between atoms: _347  and  _349
REMARK  116  A    between atoms: _349  and  _350
REMARK  117  A    between atoms: _349  and  _352
REMARK  118  A    between atoms: _352  and  _353
REMARK  119  A    between atoms: _353  and  _354
REMARK  120  A    between atoms: _359  and  _361
REMARK  121  A    between atoms: _361  and  _362
REMARK  122  A    between atoms: _361  and  _364
REMARK  123  A    between atoms: _364  and  _365
REMARK  124  A    between atoms: _370  and  _371
REMARK  125  A    between atoms: _373  and  _375
REMARK  126  A    between atoms: _375  and  _376
REMARK  127  A    between atoms: _375  and  _378
REMARK  128  A    between atoms: _380  and  _382
REMARK  129  A    between atoms: _382  and  _383
REMARK  130  A    between atoms: _382  and  _385
REMARK  131  A    between atoms: _385  and  _386
REMARK                            x       y       z     vdW  Elec       q    Type
REMARK                         _______ _______ _______ _____ _____    ______ ____
ROOT
ATOM      1  O   HOH     1      10.293 -16.201  39.497  0.00  0.00    +0.000 OA
ENDROOT
TORSDOF 0
REMARK  Name = ../refined-set-2016/2buv/2buv_pocket.pdb
REMARK  131 active torsions:
REMARK  status: ('A' for Active; 'I' for Inactive)
REMARK    1  A    between atoms: _1  and  _3
REMARK    2  A    between atoms: _3  and  _4
REMARK    3  A    between atoms: _3  and  _6
REMARK    4  A    between atoms: _6  and  _7
REMARK    5  A    between atoms: _7  and  _8
REMARK    6  A    between atoms: _13  and  _15
REMARK    7  A    between atoms: _15  and  _16
REMARK    8  A    between atoms: _15  and  _18
REMARK    9  A    between atoms: _18  and  _19
REMARK   10  A    between atoms: _22  and  _24
REMARK   11  A    between atoms: _24  and  _25
REMARK   12  A    between atoms: _27  and  _29
REMARK   13  A    between atoms: _29  and  _30
REMARK   14  A    between atoms: _33  and  _34
REMARK   15  A    between atoms: _39  and  _41
REMARK   16  A    between atoms: _41  and  _42
REMARK   17  A    between atoms: _41  and  _44
REMARK   18  A    between atoms: _44  and  _45
REMARK   19  A    between atoms: _50  and  _51
REMARK   20  A    between atoms: _53  and  _55
REMARK   21  A    between atoms: _55  and  _56
REMARK   22  A    between atoms: _55  and  _58
REMARK   23  A    between atoms: _61  and  _63
REMARK   24  A    between atoms: _63  and  _64
REMARK   25  A    between atoms: _63  and  _66
REMARK   26  A    between atoms: _66  and  _67
REMARK   27  A    between atoms: _70  and  _72
REMARK   28  A    between atoms: _72  and  _73
REMARK   29  A    between atoms: _72  and  _75
REMARK   30  A    between atoms: _75  and  _76
REMARK   31  A    between atoms: _79  and  _81
REMARK   32  A    between atoms: _81  and  _82
REMARK   33  A    between atoms: _81  and  _84
REMARK   34  A    between atoms: _84  and  _85
REMARK   35  A    between atoms: _85  and  _86
REMARK   36  A    between atoms: _86  and  _87
REMARK   37  A    between atoms: _96  and  _98
REMARK   38  A    between atoms: _98  and  _99
REMARK   39  A    between atoms: _101  and  _103
REMARK   40  A    between atoms: _103  and  _104
REMARK   41  A    between atoms: _103  and  _106
REMARK   42  A    between atoms: _106  and  _107
REMARK   43  A    between atoms: _112  and  _113
REMARK   44  A    between atoms: _115  and  _117
REMARK   45  A    between atoms: _117  and  _118
REMARK   46  A    between atoms: _117  and  _120
REMARK   47  A    between atoms: _120  and  _121
REMARK   48  A    between atoms: _124  and  _126
REMARK   49  A    between atoms: _126  and  _127
REMARK   50  A    between atoms: _126  and  _129
REMARK   51  A    between atoms: _129  and  _130
REMARK   52  A    between atoms: _140  and  _142
REMARK   53  A    between atoms: _142  and  _143
REMARK   54  A    between atoms: _142  and  _145
REMARK   55  A    between atoms: _145  and  _146
REMARK   56  A    between atoms: _146  and  _147
REMARK   57  A    between atoms: _152  and  _154
REMARK   58  A    between atoms: _154  and  _155
REMARK   59  A    between atoms: _158  and  _160
REMARK   60  A    between atoms: _160  and  _161
REMARK   61  A    between atoms: _163  and  _165
REMARK   62  A    between atoms: _165  and  _166
REMARK   63  A    between atoms: _165  and  _168
REMARK   64  A    between atoms: _168  and  _169
REMARK   65  A    between atoms: _174  and  _175
REMARK   66  A    between atoms: _177  and  _179
REMARK   67  A    between atoms: _179  and  _180
REMARK   68  A    between atoms: _179  and  _182
REMARK   69  A    between atoms: _182  and  _183
REMARK   70  A    between atoms: _188  and  _190
REMARK   71  A    between atoms: _190  and  _191
REMARK   72  A    between atoms: _190  and  _193
REMARK   73  A    between atoms: _193  and  _194
REMARK   74  A    between atoms: _198  and  _199
REMARK   75  A    between atoms: _204  and  _206
REMARK   76  A    between atoms: _206  and  _207
REMARK   77  A    between atoms: _206  and  _209
REMARK   78  A    between atoms: _209  and  _210
REMARK   79  A    between atoms: _215  and  _216
REMARK   80  A    between atoms: _219  and  _220
REMARK   81  A    between atoms: _225  and  _227
REMARK   82  A    between atoms: _227  and  _228
REMARK   83  A    between atoms: _227  and  _230
REMARK   84  A    between atoms: _230  and  _231
REMARK   85  A    between atoms: _241  and  _243
REMARK   86  A    between atoms: _243  and  _244
REMARK   87  A    between atoms: _243  and  _246
REMARK   88  A    between atoms: _246  and  _247
REMARK   89  A    between atoms: _247  and  _248
REMARK   90  A    between atoms: _248  and  _249
REMARK   91  A    between atoms: _258  and  _260
REMARK   92  A    between atoms: _260  and  _261
REMARK   93  A    between atoms: _260  and  _263
REMARK   94  A    between atoms: _263  and  _264
REMARK   95  A    between atoms: _269  and  _271
REMARK   96  A    between atoms: _271  and  _272
REMARK   97  A    between atoms: _271  and  _274
REMARK   98  A    between atoms: _274  and  _275
REMARK   99  A    between atoms: _275  and  _276
REMARK  100  A    between atoms: _279  and  _281
REMARK  101  A    between atoms: _281  and  _282
REMARK  102  A    between atoms: _281  and  _284
REMARK  103  A    between atoms: _284  and  _285
REMARK  104  A    between atoms: _295  and  _297
REMARK  105  A    between atoms: _297  and  _298
REMARK  106  A    between atoms: _297  and  _300
REMARK  107  A    between atoms: _300  and  _301
REMARK  108  A    between atoms: _304  and  _305
REMARK  109  A    between atoms: _310  and  _312
REMARK  110  A    between atoms: _312  and  _313
REMARK  111  A    between atoms: _316  and  _318
REMARK  112  A    between atoms: _329  and  _332
REMARK  113  A    between atoms: _332  and  _333
REMARK  114  A    between atoms: _338  and  _339
REMARK  115  A    between atoms: _347  and  _349
REMARK  116  A    between atoms: _349  and  _350
REMARK  117  A    between atoms: _349  and  _352
REMARK  118  A    between atoms: _352  and  _353
REMARK  119  A    between atoms: _353  and  _354
REMARK  120  A    between atoms: _359  and  _361
REMARK  121  A    between atoms: _361  and  _362
REMARK  122  A    between atoms: _361  and  _364
REMARK  123  A    between atoms: _364  and  _365
REMARK  124  A    between atoms: _370  and  _371
REMARK  125  A    between atoms: _373  and  _375
REMARK  126  A    between atoms: _375  and  _376
REMARK  127  A    between atoms: _375  and  _378
REMARK  128  A    between atoms: _380  and  _382
REMARK  129  A    between atoms: _382  and  _383
REMARK  130  A    between atoms: _382  and  _385
REMARK  131  A    between atoms: _385  and  _386
REMARK                            x       y       z     vdW  Elec       q    Type
REMARK                         _______ _______ _______ _____ _____    ______ ____
ROOT
ATOM      1  O   HOH     1      10.617  -7.602  46.769  0.00  0.00    +0.000 OA
ENDROOT
TORSDOF 0
REMARK  Name = ../refined-set-2016/2buv/2buv_pocket.pdb
REMARK  131 active torsions:
REMARK  status: ('A' for Active; 'I' for Inactive)
REMARK    1  A    between atoms: _1  and  _3
REMARK    2  A    between atoms: _3  and  _4
REMARK    3  A    between atoms: _3  and  _6
REMARK    4  A    between atoms: _6  and  _7
REMARK    5  A    between atoms: _7  and  _8
REMARK    6  A    between atoms: _13  and  _15
REMARK    7  A    between atoms: _15  and  _16
REMARK    8  A    between atoms: _15  and  _18
REMARK    9  A    between atoms: _18  and  _19
REMARK   10  A    between atoms: _22  and  _24
REMARK   11  A    between atoms: _24  and  _25
REMARK   12  A    between atoms: _27  and  _29
REMARK   13  A    between atoms: _29  and  _30
REMARK   14  A    between atoms: _33  and  _34
REMARK   15  A    between atoms: _39  and  _41
REMARK   16  A    between atoms: _41  and  _42
REMARK   17  A    between atoms: _41  and  _44
REMARK   18  A    between atoms: _44  and  _45
REMARK   19  A    between atoms: _50  and  _51
REMARK   20  A    between atoms: _53  and  _55
REMARK   21  A    between atoms: _55  and  _56
REMARK   22  A    between atoms: _55  and  _58
REMARK   23  A    between atoms: _61  and  _63
REMARK   24  A    between atoms: _63  and  _64
REMARK   25  A    between atoms: _63  and  _66
REMARK   26  A    between atoms: _66  and  _67
REMARK   27  A    between atoms: _70  and  _72
REMARK   28  A    between atoms: _72  and  _73
REMARK   29  A    between atoms: _72  and  _75
REMARK   30  A    between atoms: _75  and  _76
REMARK   31  A    between atoms: _79  and  _81
REMARK   32  A    between atoms: _81  and  _82
REMARK   33  A    between atoms: _81  and  _84
REMARK   34  A    between atoms: _84  and  _85
REMARK   35  A    between atoms: _85  and  _86
REMARK   36  A    between atoms: _86  and  _87
REMARK   37  A    between atoms: _96  and  _98
REMARK   38  A    between atoms: _98  and  _99
REMARK   39  A    between atoms: _101  and  _103
REMARK   40  A    between atoms: _103  and  _104
REMARK   41  A    between atoms: _103  and  _106
REMARK   42  A    between atoms: _106  and  _107
REMARK   43  A    between atoms: _112  and  _113
REMARK   44  A    between atoms: _115  and  _117
REMARK   45  A    between atoms: _117  and  _118
REMARK   46  A    between atoms: _117  and  _120
REMARK   47  A    between atoms: _120  and  _121
REMARK   48  A    between atoms: _124  and  _126
REMARK   49  A    between atoms: _126  and  _127
REMARK   50  A    between atoms: _126  and  _129
REMARK   51  A    between atoms: _129  and  _130
REMARK   52  A    between atoms: _140  and  _142
REMARK   53  A    between atoms: _142  and  _143
REMARK   54  A    between atoms: _142  and  _145
REMARK   55  A    between atoms: _145  and  _146
REMARK   56  A    between atoms: _146  and  _147
REMARK   57  A    between atoms: _152  and  _154
REMARK   58  A    between atoms: _154  and  _155
REMARK   59  A    between atoms: _158  and  _160
REMARK   60  A    between atoms: _160  and  _161
REMARK   61  A    between atoms: _163  and  _165
REMARK   62  A    between atoms: _165  and  _166
REMARK   63  A    between atoms: _165  and  _168
REMARK   64  A    between atoms: _168  and  _169
REMARK   65  A    between atoms: _174  and  _175
REMARK   66  A    between atoms: _177  and  _179
REMARK   67  A    between atoms: _179  and  _180
REMARK   68  A    between atoms: _179  and  _182
REMARK   69  A    between atoms: _182  and  _183
REMARK   70  A    between atoms: _188  and  _190
REMARK   71  A    between atoms: _190  and  _191
REMARK   72  A    between atoms: _190  and  _193
REMARK   73  A    between atoms: _193  and  _194
REMARK   74  A    between atoms: _198  and  _199
REMARK   75  A    between atoms: _204  and  _206
REMARK   76  A    between atoms: _206  and  _207
REMARK   77  A    between atoms: _206  and  _209
REMARK   78  A    between atoms: _209  and  _210
REMARK   79  A    between atoms: _215  and  _216
REMARK   80  A    between atoms: _219  and  _220
REMARK   81  A    between atoms: _225  and  _227
REMARK   82  A    between atoms: _227  and  _228
REMARK   83  A    between atoms: _227  and  _230
REMARK   84  A    between atoms: _230  and  _231
REMARK   85  A    between atoms: _241  and  _243
REMARK   86  A    between atoms: _243  and  _244
REMARK   87  A    between atoms: _243  and  _246
REMARK   88  A    between atoms: _246  and  _247
REMARK   89  A    between atoms: _247  and  _248
REMARK   90  A    between atoms: _248  and  _249
REMARK   91  A    between atoms: _258  and  _260
REMARK   92  A    between atoms: _260  and  _261
REMARK   93  A    between atoms: _260  and  _263
REMARK   94  A    between atoms: _263  and  _264
REMARK   95  A    between atoms: _269  and  _271
REMARK   96  A    between atoms: _271  and  _272
REMARK   97  A    between atoms: _271  and  _274
REMARK   98  A    between atoms: _274  and  _275
REMARK   99  A    between atoms: _275  and  _276
REMARK  100  A    between atoms: _279  and  _281
REMARK  101  A    between atoms: _281  and  _282
REMARK  102  A    between atoms: _281  and  _284
REMARK  103  A    between atoms: _284  and  _285
REMARK  104  A    between atoms: _295  and  _297
REMARK  105  A    between atoms: _297  and  _298
REMARK  106  A    between atoms: _297  and  _300
REMARK  107  A    between atoms: _300  and  _301
REMARK  108  A    between atoms: _304  and  _305
REMARK  109  A    between atoms: _310  and  _312
REMARK  110  A    between atoms: _312  and  _313
REMARK  111  A    between atoms: _316  and  _318
REMARK  112  A    between atoms: _329  and  _332
REMARK  113  A    between atoms: _332  and  _333
REMARK  114  A    between atoms: _338  and  _339
REMARK  115  A    between atoms: _347  and  _349
REMARK  116  A    between atoms: _349  and  _350
REMARK  117  A    between atoms: _349  and  _352
REMARK  118  A    between atoms: _352  and  _353
REMARK  119  A    between atoms: _353  and  _354
REMARK  120  A    between atoms: _359  and  _361
REMARK  121  A    between atoms: _361  and  _362
REMARK  122  A    between atoms: _361  and  _364
REMARK  123  A    between atoms: _364  and  _365
REMARK  124  A    between atoms: _370  and  _371
REMARK  125  A    between atoms: _373  and  _375
REMARK  126  A    between atoms: _375  and  _376
REMARK  127  A    between atoms: _375  and  _378
REMARK  128  A    between atoms: _380  and  _382
REMARK  129  A    between atoms: _382  and  _383
REMARK  130  A    between atoms: _382  and  _385
REMARK  131  A    between atoms: _385  and  _386
REMARK                            x       y       z     vdW  Elec       q    Type
REMARK                         _______ _______ _______ _____ _____    ______ ____
ROOT
ATOM      1  O   HOH     1       4.540  -8.375  41.255  0.00  0.00    +0.000 OA
ENDROOT
TORSDOF 0
REMARK  Name = ../refined-set-2016/2buv/2buv_pocket.pdb
REMARK  131 active torsions:
REMARK  status: ('A' for Active; 'I' for Inactive)
REMARK    1  A    between atoms: _1  and  _3
REMARK    2  A    between atoms: _3  and  _4
REMARK    3  A    between atoms: _3  and  _6
REMARK    4  A    between atoms: _6  and  _7
REMARK    5  A    between atoms: _7  and  _8
REMARK    6  A    between atoms: _13  and  _15
REMARK    7  A    between atoms: _15  and  _16
REMARK    8  A    between atoms: _15  and  _18
REMARK    9  A    between atoms: _18  and  _19
REMARK   10  A    between atoms: _22  and  _24
REMARK   11  A    between atoms: _24  and  _25
REMARK   12  A    between atoms: _27  and  _29
REMARK   13  A    between atoms: _29  and  _30
REMARK   14  A    between atoms: _33  and  _34
REMARK   15  A    between atoms: _39  and  _41
REMARK   16  A    between atoms: _41  and  _42
REMARK   17  A    between atoms: _41  and  _44
REMARK   18  A    between atoms: _44  and  _45
REMARK   19  A    between atoms: _50  and  _51
REMARK   20  A    between atoms: _53  and  _55
REMARK   21  A    between atoms: _55  and  _56
REMARK   22  A    between atoms: _55  and  _58
REMARK   23  A    between atoms: _61  and  _63
REMARK   24  A    between atoms: _63  and  _64
REMARK   25  A    between atoms: _63  and  _66
REMARK   26  A    between atoms: _66  and  _67
REMARK   27  A    between atoms: _70  and  _72
REMARK   28  A    between atoms: _72  and  _73
REMARK   29  A    between atoms: _72  and  _75
REMARK   30  A    between atoms: _75  and  _76
REMARK   31  A    between atoms: _79  and  _81
REMARK   32  A    between atoms: _81  and  _82
REMARK   33  A    between atoms: _81  and  _84
REMARK   34  A    between atoms: _84  and  _85
REMARK   35  A    between atoms: _85  and  _86
REMARK   36  A    between atoms: _86  and  _87
REMARK   37  A    between atoms: _96  and  _98
REMARK   38  A    between atoms: _98  and  _99
REMARK   39  A    between atoms: _101  and  _103
REMARK   40  A    between atoms: _103  and  _104
REMARK   41  A    between atoms: _103  and  _106
REMARK   42  A    between atoms: _106  and  _107
REMARK   43  A    between atoms: _112  and  _113
REMARK   44  A    between atoms: _115  and  _117
REMARK   45  A    between atoms: _117  and  _118
REMARK   46  A    between atoms: _117  and  _120
REMARK   47  A    between atoms: _120  and  _121
REMARK   48  A    between atoms: _124  and  _126
REMARK   49  A    between atoms: _126  and  _127
REMARK   50  A    between atoms: _126  and  _129
REMARK   51  A    between atoms: _129  and  _130
REMARK   52  A    between atoms: _140  and  _142
REMARK   53  A    between atoms: _142  and  _143
REMARK   54  A    between atoms: _142  and  _145
REMARK   55  A    between atoms: _145  and  _146
REMARK   56  A    between atoms: _146  and  _147
REMARK   57  A    between atoms: _152  and  _154
REMARK   58  A    between atoms: _154  and  _155
REMARK   59  A    between atoms: _158  and  _160
REMARK   60  A    between atoms: _160  and  _161
REMARK   61  A    between atoms: _163  and  _165
REMARK   62  A    between atoms: _165  and  _166
REMARK   63  A    between atoms: _165  and  _168
REMARK   64  A    between atoms: _168  and  _169
REMARK   65  A    between atoms: _174  and  _175
REMARK   66  A    between atoms: _177  and  _179
REMARK   67  A    between atoms: _179  and  _180
REMARK   68  A    between atoms: _179  and  _182
REMARK   69  A    between atoms: _182  and  _183
REMARK   70  A    between atoms: _188  and  _190
REMARK   71  A    between atoms: _190  and  _191
REMARK   72  A    between atoms: _190  and  _193
REMARK   73  A    between atoms: _193  and  _194
REMARK   74  A    between atoms: _198  and  _199
REMARK   75  A    between atoms: _204  and  _206
REMARK   76  A    between atoms: _206  and  _207
REMARK   77  A    between atoms: _206  and  _209
REMARK   78  A    between atoms: _209  and  _210
REMARK   79  A    between atoms: _215  and  _216
REMARK   80  A    between atoms: _219  and  _220
REMARK   81  A    between atoms: _225  and  _227
REMARK   82  A    between atoms: _227  and  _228
REMARK   83  A    between atoms: _227  and  _230
REMARK   84  A    between atoms: _230  and  _231
REMARK   85  A    between atoms: _241  and  _243
REMARK   86  A    between atoms: _243  and  _244
REMARK   87  A    between atoms: _243  and  _246
REMARK   88  A    between atoms: _246  and  _247
REMARK   89  A    between atoms: _247  and  _248
REMARK   90  A    between atoms: _248  and  _249
REMARK   91  A    between atoms: _258  and  _260
REMARK   92  A    between atoms: _260  and  _261
REMARK   93  A    between atoms: _260  and  _263
REMARK   94  A    between atoms: _263  and  _264
REMARK   95  A    between atoms: _269  and  _271
REMARK   96  A    between atoms: _271  and  _272
REMARK   97  A    between atoms: _271  and  _274
REMARK   98  A    between atoms: _274  and  _275
REMARK   99  A    between atoms: _275  and  _276
REMARK  100  A    between atoms: _279  and  _281
REMARK  101  A    between atoms: _281  and  _282
REMARK  102  A    between atoms: _281  and  _284
REMARK  103  A    between atoms: _284  and  _285
REMARK  104  A    between atoms: _295  and  _297
REMARK  105  A    between atoms: _297  and  _298
REMARK  106  A    between atoms: _297  and  _300
REMARK  107  A    between atoms: _300  and  _301
REMARK  108  A    between atoms: _304  and  _305
REMARK  109  A    between atoms: _310  and  _312
REMARK  110  A    between atoms: _312  and  _313
REMARK  111  A    between atoms: _316  and  _318
REMARK  112  A    between atoms: _329  and  _332
REMARK  113  A    between atoms: _332  and  _333
REMARK  114  A    between atoms: _338  and  _339
REMARK  115  A    between atoms: _347  and  _349
REMARK  116  A    between atoms: _349  and  _350
REMARK  117  A    between atoms: _349  and  _352
REMARK  118  A    between atoms: _352  and  _353
REMARK  119  A    between atoms: _353  and  _354
REMARK  120  A    between atoms: _359  and  _361
REMARK  121  A    between atoms: _361  and  _362
REMARK  122  A    between atoms: _361  and  _364
REMARK  123  A    between atoms: _364  and  _365
REMARK  124  A    between atoms: _370  and  _371
REMARK  125  A    between atoms: _373  and  _375
REMARK  126  A    between atoms: _375  and  _376
REMARK  127  A    between atoms: _375  and  _378
REMARK  128  A    between atoms: _380  and  _382
REMARK  129  A    between atoms: _382  and  _383
REMARK  130  A    between atoms: _382  and  _385
REMARK  131  A    between atoms: _385  and  _386
REMARK                            x       y       z     vdW  Elec       q    Type
REMARK                         _______ _______ _______ _____ _____    ______ ____
ROOT
ATOM      1  O   HOH     1      13.191  -7.673  45.787  0.00  0.00    +0.000 OA
ENDROOT
TORSDOF 0
REMARK  Name = ../refined-set-2016/2buv/2buv_pocket.pdb
REMARK  131 active torsions:
REMARK  status: ('A' for Active; 'I' for Inactive)
REMARK    1  A    between atoms: _1  and  _3
REMARK    2  A    between atoms: _3  and  _4
REMARK    3  A    between atoms: _3  and  _6
REMARK    4  A    between atoms: _6  and  _7
REMARK    5  A    between atoms: _7  and  _8
REMARK    6  A    between atoms: _13  and  _15
REMARK    7  A    between atoms: _15  and  _16
REMARK    8  A    between atoms: _15  and  _18
REMARK    9  A    between atoms: _18  and  _19
REMARK   10  A    between atoms: _22  and  _24
REMARK   11  A    between atoms: _24  and  _25
REMARK   12  A    between atoms: _27  and  _29
REMARK   13  A    between atoms: _29  and  _30
REMARK   14  A    between atoms: _33  and  _34
REMARK   15  A    between atoms: _39  and  _41
REMARK   16  A    between atoms: _41  and  _42
REMARK   17  A    between atoms: _41  and  _44
REMARK   18  A    between atoms: _44  and  _45
REMARK   19  A    between atoms: _50  and  _51
REMARK   20  A    between atoms: _53  and  _55
REMARK   21  A    between atoms: _55  and  _56
REMARK   22  A    between atoms: _55  and  _58
REMARK   23  A    between atoms: _61  and  _63
REMARK   24  A    between atoms: _63  and  _64
REMARK   25  A    between atoms: _63  and  _66
REMARK   26  A    between atoms: _66  and  _67
REMARK   27  A    between atoms: _70  and  _72
REMARK   28  A    between atoms: _72  and  _73
REMARK   29  A    between atoms: _72  and  _75
REMARK   30  A    between atoms: _75  and  _76
REMARK   31  A    between atoms: _79  and  _81
REMARK   32  A    between atoms: _81  and  _82
REMARK   33  A    between atoms: _81  and  _84
REMARK   34  A    between atoms: _84  and  _85
REMARK   35  A    between atoms: _85  and  _86
REMARK   36  A    between atoms: _86  and  _87
REMARK   37  A    between atoms: _96  and  _98
REMARK   38  A    between atoms: _98  and  _99
REMARK   39  A    between atoms: _101  and  _103
REMARK   40  A    between atoms: _103  and  _104
REMARK   41  A    between atoms: _103  and  _106
REMARK   42  A    between atoms: _106  and  _107
REMARK   43  A    between atoms: _112  and  _113
REMARK   44  A    between atoms: _115  and  _117
REMARK   45  A    between atoms: _117  and  _118
REMARK   46  A    between atoms: _117  and  _120
REMARK   47  A    between atoms: _120  and  _121
REMARK   48  A    between atoms: _124  and  _126
REMARK   49  A    between atoms: _126  and  _127
REMARK   50  A    between atoms: _126  and  _129
REMARK   51  A    between atoms: _129  and  _130
REMARK   52  A    between atoms: _140  and  _142
REMARK   53  A    between atoms: _142  and  _143
REMARK   54  A    between atoms: _142  and  _145
REMARK   55  A    between atoms: _145  and  _146
REMARK   56  A    between atoms: _146  and  _147
REMARK   57  A    between atoms: _152  and  _154
REMARK   58  A    between atoms: _154  and  _155
REMARK   59  A    between atoms: _158  and  _160
REMARK   60  A    between atoms: _160  and  _161
REMARK   61  A    between atoms: _163  and  _165
REMARK   62  A    between atoms: _165  and  _166
REMARK   63  A    between atoms: _165  and  _168
REMARK   64  A    between atoms: _168  and  _169
REMARK   65  A    between atoms: _174  and  _175
REMARK   66  A    between atoms: _177  and  _179
REMARK   67  A    between atoms: _179  and  _180
REMARK   68  A    between atoms: _179  and  _182
REMARK   69  A    between atoms: _182  and  _183
REMARK   70  A    between atoms: _188  and  _190
REMARK   71  A    between atoms: _190  and  _191
REMARK   72  A    between atoms: _190  and  _193
REMARK   73  A    between atoms: _193  and  _194
REMARK   74  A    between atoms: _198  and  _199
REMARK   75  A    between atoms: _204  and  _206
REMARK   76  A    between atoms: _206  and  _207
REMARK   77  A    between atoms: _206  and  _209
REMARK   78  A    between atoms: _209  and  _210
REMARK   79  A    between atoms: _215  and  _216
REMARK   80  A    between atoms: _219  and  _220
REMARK   81  A    between atoms: _225  and  _227
REMARK   82  A    between atoms: _227  and  _228
REMARK   83  A    between atoms: _227  and  _230
REMARK   84  A    between atoms: _230  and  _231
REMARK   85  A    between atoms: _241  and  _243
REMARK   86  A    between atoms: _243  and  _244
REMARK   87  A    between atoms: _243  and  _246
REMARK   88  A    between atoms: _246  and  _247
REMARK   89  A    between atoms: _247  and  _248
REMARK   90  A    between atoms: _248  and  _249
REMARK   91  A    between atoms: _258  and  _260
REMARK   92  A    between atoms: _260  and  _261
REMARK   93  A    between atoms: _260  and  _263
REMARK   94  A    between atoms: _263  and  _264
REMARK   95  A    between atoms: _269  and  _271
REMARK   96  A    between atoms: _271  and  _272
REMARK   97  A    between atoms: _271  and  _274
REMARK   98  A    between atoms: _274  and  _275
REMARK   99  A    between atoms: _275  and  _276
REMARK  100  A    between atoms: _279  and  _281
REMARK  101  A    between atoms: _281  and  _282
REMARK  102  A    between atoms: _281  and  _284
REMARK  103  A    between atoms: _284  and  _285
REMARK  104  A    between atoms: _295  and  _297
REMARK  105  A    between atoms: _297  and  _298
REMARK  106  A    between atoms: _297  and  _300
REMARK  107  A    between atoms: _300  and  _301
REMARK  108  A    between atoms: _304  and  _305
REMARK  109  A    between atoms: _310  and  _312
REMARK  110  A    between atoms: _312  and  _313
REMARK  111  A    between atoms: _316  and  _318
REMARK  112  A    between atoms: _329  and  _332
REMARK  113  A    between atoms: _332  and  _333
REMARK  114  A    between atoms: _338  and  _339
REMARK  115  A    between atoms: _347  and  _349
REMARK  116  A    between atoms: _349  and  _350
REMARK  117  A    between atoms: _349  and  _352
REMARK  118  A    between atoms: _352  and  _353
REMARK  119  A    between atoms: _353  and  _354
REMARK  120  A    between atoms: _359  and  _361
REMARK  121  A    between atoms: _361  and  _362
REMARK  122  A    between atoms: _361  and  _364
REMARK  123  A    between atoms: _364  and  _365
REMARK  124  A    between atoms: _370  and  _371
REMARK  125  A    between atoms: _373  and  _375
REMARK  126  A    between atoms: _375  and  _376
REMARK  127  A    between atoms: _375  and  _378
REMARK  128  A    between atoms: _380  and  _382
REMARK  129  A    between atoms: _382  and  _383
REMARK  130  A    between atoms: _382  and  _385
REMARK  131  A    between atoms: _385  and  _386
REMARK                            x       y       z     vdW  Elec       q    Type
REMARK                         _______ _______ _______ _____ _____    ______ ____
ROOT
ATOM      1  O   HOH     1      17.133 -11.053  43.745  0.00  0.00    +0.000 OA
ENDROOT
TORSDOF 0
REMARK  Name = ../refined-set-2016/2buv/2buv_pocket.pdb
REMARK  131 active torsions:
REMARK  status: ('A' for Active; 'I' for Inactive)
REMARK    1  A    between atoms: _1  and  _3
REMARK    2  A    between atoms: _3  and  _4
REMARK    3  A    between atoms: _3  and  _6
REMARK    4  A    between atoms: _6  and  _7
REMARK    5  A    between atoms: _7  and  _8
REMARK    6  A    between atoms: _13  and  _15
REMARK    7  A    between atoms: _15  and  _16
REMARK    8  A    between atoms: _15  and  _18
REMARK    9  A    between atoms: _18  and  _19
REMARK   10  A    between atoms: _22  and  _24
REMARK   11  A    between atoms: _24  and  _25
REMARK   12  A    between atoms: _27  and  _29
REMARK   13  A    between atoms: _29  and  _30
REMARK   14  A    between atoms: _33  and  _34
REMARK   15  A    between atoms: _39  and  _41
REMARK   16  A    between atoms: _41  and  _42
REMARK   17  A    between atoms: _41  and  _44
REMARK   18  A    between atoms: _44  and  _45
REMARK   19  A    between atoms: _50  and  _51
REMARK   20  A    between atoms: _53  and  _55
REMARK   21  A    between atoms: _55  and  _56
REMARK   22  A    between atoms: _55  and  _58
REMARK   23  A    between atoms: _61  and  _63
REMARK   24  A    between atoms: _63  and  _64
REMARK   25  A    between atoms: _63  and  _66
REMARK   26  A    between atoms: _66  and  _67
REMARK   27  A    between atoms: _70  and  _72
REMARK   28  A    between atoms: _72  and  _73
REMARK   29  A    between atoms: _72  and  _75
REMARK   30  A    between atoms: _75  and  _76
REMARK   31  A    between atoms: _79  and  _81
REMARK   32  A    between atoms: _81  and  _82
REMARK   33  A    between atoms: _81  and  _84
REMARK   34  A    between atoms: _84  and  _85
REMARK   35  A    between atoms: _85  and  _86
REMARK   36  A    between atoms: _86  and  _87
REMARK   37  A    between atoms: _96  and  _98
REMARK   38  A    between atoms: _98  and  _99
REMARK   39  A    between atoms: _101  and  _103
REMARK   40  A    between atoms: _103  and  _104
REMARK   41  A    between atoms: _103  and  _106
REMARK   42  A    between atoms: _106  and  _107
REMARK   43  A    between atoms: _112  and  _113
REMARK   44  A    between atoms: _115  and  _117
REMARK   45  A    between atoms: _117  and  _118
REMARK   46  A    between atoms: _117  and  _120
REMARK   47  A    between atoms: _120  and  _121
REMARK   48  A    between atoms: _124  and  _126
REMARK   49  A    between atoms: _126  and  _127
REMARK   50  A    between atoms: _126  and  _129
REMARK   51  A    between atoms: _129  and  _130
REMARK   52  A    between atoms: _140  and  _142
REMARK   53  A    between atoms: _142  and  _143
REMARK   54  A    between atoms: _142  and  _145
REMARK   55  A    between atoms: _145  and  _146
REMARK   56  A    between atoms: _146  and  _147
REMARK   57  A    between atoms: _152  and  _154
REMARK   58  A    between atoms: _154  and  _155
REMARK   59  A    between atoms: _158  and  _160
REMARK   60  A    between atoms: _160  and  _161
REMARK   61  A    between atoms: _163  and  _165
REMARK   62  A    between atoms: _165  and  _166
REMARK   63  A    between atoms: _165  and  _168
REMARK   64  A    between atoms: _168  and  _169
REMARK   65  A    between atoms: _174  and  _175
REMARK   66  A    between atoms: _177  and  _179
REMARK   67  A    between atoms: _179  and  _180
REMARK   68  A    between atoms: _179  and  _182
REMARK   69  A    between atoms: _182  and  _183
REMARK   70  A    between atoms: _188  and  _190
REMARK   71  A    between atoms: _190  and  _191
REMARK   72  A    between atoms: _190  and  _193
REMARK   73  A    between atoms: _193  and  _194
REMARK   74  A    between atoms: _198  and  _199
REMARK   75  A    between atoms: _204  and  _206
REMARK   76  A    between atoms: _206  and  _207
REMARK   77  A    between atoms: _206  and  _209
REMARK   78  A    between atoms: _209  and  _210
REMARK   79  A    between atoms: _215  and  _216
REMARK   80  A    between atoms: _219  and  _220
REMARK   81  A    between atoms: _225  and  _227
REMARK   82  A    between atoms: _227  and  _228
REMARK   83  A    between atoms: _227  and  _230
REMARK   84  A    between atoms: _230  and  _231
REMARK   85  A    between atoms: _241  and  _243
REMARK   86  A    between atoms: _243  and  _244
REMARK   87  A    between atoms: _243  and  _246
REMARK   88  A    between atoms: _246  and  _247
REMARK   89  A    between atoms: _247  and  _248
REMARK   90  A    between atoms: _248  and  _249
REMARK   91  A    between atoms: _258  and  _260
REMARK   92  A    between atoms: _260  and  _261
REMARK   93  A    between atoms: _260  and  _263
REMARK   94  A    between atoms: _263  and  _264
REMARK   95  A    between atoms: _269  and  _271
REMARK   96  A    between atoms: _271  and  _272
REMARK   97  A    between atoms: _271  and  _274
REMARK   98  A    between atoms: _274  and  _275
REMARK   99  A    between atoms: _275  and  _276
REMARK  100  A    between atoms: _279  and  _281
REMARK  101  A    between atoms: _281  and  _282
REMARK  102  A    between atoms: _281  and  _284
REMARK  103  A    between atoms: _284  and  _285
REMARK  104  A    between atoms: _295  and  _297
REMARK  105  A    between atoms: _297  and  _298
REMARK  106  A    between atoms: _297  and  _300
REMARK  107  A    between atoms: _300  and  _301
REMARK  108  A    between atoms: _304  and  _305
REMARK  109  A    between atoms: _310  and  _312
REMARK  110  A    between atoms: _312  and  _313
REMARK  111  A    between atoms: _316  and  _318
REMARK  112  A    between atoms: _329  and  _332
REMARK  113  A    between atoms: _332  and  _333
REMARK  114  A    between atoms: _338  and  _339
REMARK  115  A    between atoms: _347  and  _349
REMARK  116  A    between atoms: _349  and  _350
REMARK  117  A    between atoms: _349  and  _352
REMARK  118  A    between atoms: _352  and  _353
REMARK  119  A    between atoms: _353  and  _354
REMARK  120  A    between atoms: _359  and  _361
REMARK  121  A    between atoms: _361  and  _362
REMARK  122  A    between atoms: _361  and  _364
REMARK  123  A    between atoms: _364  and  _365
REMARK  124  A    between atoms: _370  and  _371
REMARK  125  A    between atoms: _373  and  _375
REMARK  126  A    between atoms: _375  and  _376
REMARK  127  A    between atoms: _375  and  _378
REMARK  128  A    between atoms: _380  and  _382
REMARK  129  A    between atoms: _382  and  _383
REMARK  130  A    between atoms: _382  and  _385
REMARK  131  A    between atoms: _385  and  _386
REMARK                            x       y       z     vdW  Elec       q    Type
REMARK                         _______ _______ _______ _____ _____    ______ ____
ROOT
ATOM      1  O   HOH     1      20.179 -14.505  39.376  0.00  0.00    +0.000 OA
ENDROOT
TORSDOF 0
REMARK  Name = ../refined-set-2016/2buv/2buv_pocket.pdb
REMARK  131 active torsions:
REMARK  status: ('A' for Active; 'I' for Inactive)
REMARK    1  A    between atoms: _1  and  _3
REMARK    2  A    between atoms: _3  and  _4
REMARK    3  A    between atoms: _3  and  _6
REMARK    4  A    between atoms: _6  and  _7
REMARK    5  A    between atoms: _7  and  _8
REMARK    6  A    between atoms: _13  and  _15
REMARK    7  A    between atoms: _15  and  _16
REMARK    8  A    between atoms: _15  and  _18
REMARK    9  A    between atoms: _18  and  _19
REMARK   10  A    between atoms: _22  and  _24
REMARK   11  A    between atoms: _24  and  _25
REMARK   12  A    between atoms: _27  and  _29
REMARK   13  A    between atoms: _29  and  _30
REMARK   14  A    between atoms: _33  and  _34
REMARK   15  A    between atoms: _39  and  _41
REMARK   16  A    between atoms: _41  and  _42
REMARK   17  A    between atoms: _41  and  _44
REMARK   18  A    between atoms: _44  and  _45
REMARK   19  A    between atoms: _50  and  _51
REMARK   20  A    between atoms: _53  and  _55
REMARK   21  A    between atoms: _55  and  _56
REMARK   22  A    between atoms: _55  and  _58
REMARK   23  A    between atoms: _61  and  _63
REMARK   24  A    between atoms: _63  and  _64
REMARK   25  A    between atoms: _63  and  _66
REMARK   26  A    between atoms: _66  and  _67
REMARK   27  A    between atoms: _70  and  _72
REMARK   28  A    between atoms: _72  and  _73
REMARK   29  A    between atoms: _72  and  _75
REMARK   30  A    between atoms: _75  and  _76
REMARK   31  A    between atoms: _79  and  _81
REMARK   32  A    between atoms: _81  and  _82
REMARK   33  A    between atoms: _81  and  _84
REMARK   34  A    between atoms: _84  and  _85
REMARK   35  A    between atoms: _85  and  _86
REMARK   36  A    between atoms: _86  and  _87
REMARK   37  A    between atoms: _96  and  _98
REMARK   38  A    between atoms: _98  and  _99
REMARK   39  A    between atoms: _101  and  _103
REMARK   40  A    between atoms: _103  and  _104
REMARK   41  A    between atoms: _103  and  _106
REMARK   42  A    between atoms: _106  and  _107
REMARK   43  A    between atoms: _112  and  _113
REMARK   44  A    between atoms: _115  and  _117
REMARK   45  A    between atoms: _117  and  _118
REMARK   46  A    between atoms: _117  and  _120
REMARK   47  A    between atoms: _120  and  _121
REMARK   48  A    between atoms: _124  and  _126
REMARK   49  A    between atoms: _126  and  _127
REMARK   50  A    between atoms: _126  and  _129
REMARK   51  A    between atoms: _129  and  _130
REMARK   52  A    between atoms: _140  and  _142
REMARK   53  A    between atoms: _142  and  _143
REMARK   54  A    between atoms: _142  and  _145
REMARK   55  A    between atoms: _145  and  _146
REMARK   56  A    between atoms: _146  and  _147
REMARK   57  A    between atoms: _152  and  _154
REMARK   58  A    between atoms: _154  and  _155
REMARK   59  A    between atoms: _158  and  _160
REMARK   60  A    between atoms: _160  and  _161
REMARK   61  A    between atoms: _163  and  _165
REMARK   62  A    between atoms: _165  and  _166
REMARK   63  A    between atoms: _165  and  _168
REMARK   64  A    between atoms: _168  and  _169
REMARK   65  A    between atoms: _174  and  _175
REMARK   66  A    between atoms: _177  and  _179
REMARK   67  A    between atoms: _179  and  _180
REMARK   68  A    between atoms: _179  and  _182
REMARK   69  A    between atoms: _182  and  _183
REMARK   70  A    between atoms: _188  and  _190
REMARK   71  A    between atoms: _190  and  _191
REMARK   72  A    between atoms: _190  and  _193
REMARK   73  A    between atoms: _193  and  _194
REMARK   74  A    between atoms: _198  and  _199
REMARK   75  A    between atoms: _204  and  _206
REMARK   76  A    between atoms: _206  and  _207
REMARK   77  A    between atoms: _206  and  _209
REMARK   78  A    between atoms: _209  and  _210
REMARK   79  A    between atoms: _215  and  _216
REMARK   80  A    between atoms: _219  and  _220
REMARK   81  A    between atoms: _225  and  _227
REMARK   82  A    between atoms: _227  and  _228
REMARK   83  A    between atoms: _227  and  _230
REMARK   84  A    between atoms: _230  and  _231
REMARK   85  A    between atoms: _241  and  _243
REMARK   86  A    between atoms: _243  and  _244
REMARK   87  A    between atoms: _243  and  _246
REMARK   88  A    between atoms: _246  and  _247
REMARK   89  A    between atoms: _247  and  _248
REMARK   90  A    between atoms: _248  and  _249
REMARK   91  A    between atoms: _258  and  _260
REMARK   92  A    between atoms: _260  and  _261
REMARK   93  A    between atoms: _260  and  _263
REMARK   94  A    between atoms: _263  and  _264
REMARK   95  A    between atoms: _269  and  _271
REMARK   96  A    between atoms: _271  and  _272
REMARK   97  A    between atoms: _271  and  _274
REMARK   98  A    between atoms: _274  and  _275
REMARK   99  A    between atoms: _275  and  _276
REMARK  100  A    between atoms: _279  and  _281
REMARK  101  A    between atoms: _281  and  _282
REMARK  102  A    between atoms: _281  and  _284
REMARK  103  A    between atoms: _284  and  _285
REMARK  104  A    between atoms: _295  and  _297
REMARK  105  A    between atoms: _297  and  _298
REMARK  106  A    between atoms: _297  and  _300
REMARK  107  A    between atoms: _300  and  _301
REMARK  108  A    between atoms: _304  and  _305
REMARK  109  A    between atoms: _310  and  _312
REMARK  110  A    between atoms: _312  and  _313
REMARK  111  A    between atoms: _316  and  _318
REMARK  112  A    between atoms: _329  and  _332
REMARK  113  A    between atoms: _332  and  _333
REMARK  114  A    between atoms: _338  and  _339
REMARK  115  A    between atoms: _347  and  _349
REMARK  116  A    between atoms: _349  and  _350
REMARK  117  A    between atoms: _349  and  _352
REMARK  118  A    between atoms: _352  and  _353
REMARK  119  A    between atoms: _353  and  _354
REMARK  120  A    between atoms: _359  and  _361
REMARK  121  A    between atoms: _361  and  _362
REMARK  122  A    between atoms: _361  and  _364
REMARK  123  A    between atoms: _364  and  _365
REMARK  124  A    between atoms: _370  and  _371
REMARK  125  A    between atoms: _373  and  _375
REMARK  126  A    between atoms: _375  and  _376
REMARK  127  A    between atoms: _375  and  _378
REMARK  128  A    between atoms: _380  and  _382
REMARK  129  A    between atoms: _382  and  _383
REMARK  130  A    between atoms: _382  and  _385
REMARK  131  A    between atoms: _385  and  _386
REMARK                            x       y       z     vdW  Elec       q    Type
REMARK                         _______ _______ _______ _____ _____    ______ ____
ROOT
ATOM      1  O   HOH     1      18.395 -15.357  37.724  0.00  0.00    +0.000 OA
ENDROOT
TORSDOF 0
REMARK  Name = ../refined-set-2016/2buv/2buv_pocket.pdb
REMARK  131 active torsions:
REMARK  status: ('A' for Active; 'I' for Inactive)
REMARK    1  A    between atoms: _1  and  _3
REMARK    2  A    between atoms: _3  and  _4
REMARK    3  A    between atoms: _3  and  _6
REMARK    4  A    between atoms: _6  and  _7
REMARK    5  A    between atoms: _7  and  _8
REMARK    6  A    between atoms: _13  and  _15
REMARK    7  A    between atoms: _15  and  _16
REMARK    8  A    between atoms: _15  and  _18
REMARK    9  A    between atoms: _18  and  _19
REMARK   10  A    between atoms: _22  and  _24
REMARK   11  A    between atoms: _24  and  _25
REMARK   12  A    between atoms: _27  and  _29
REMARK   13  A    between atoms: _29  and  _30
REMARK   14  A    between atoms: _33  and  _34
REMARK   15  A    between atoms: _39  and  _41
REMARK   16  A    between atoms: _41  and  _42
REMARK   17  A    between atoms: _41  and  _44
REMARK   18  A    between atoms: _44  and  _45
REMARK   19  A    between atoms: _50  and  _51
REMARK   20  A    between atoms: _53  and  _55
REMARK   21  A    between atoms: _55  and  _56
REMARK   22  A    between atoms: _55  and  _58
REMARK   23  A    between atoms: _61  and  _63
REMARK   24  A    between atoms: _63  and  _64
REMARK   25  A    between atoms: _63  and  _66
REMARK   26  A    between atoms: _66  and  _67
REMARK   27  A    between atoms: _70  and  _72
REMARK   28  A    between atoms: _72  and  _73
REMARK   29  A    between atoms: _72  and  _75
REMARK   30  A    between atoms: _75  and  _76
REMARK   31  A    between atoms: _79  and  _81
REMARK   32  A    between atoms: _81  and  _82
REMARK   33  A    between atoms: _81  and  _84
REMARK   34  A    between atoms: _84  and  _85
REMARK   35  A    between atoms: _85  and  _86
REMARK   36  A    between atoms: _86  and  _87
REMARK   37  A    between atoms: _96  and  _98
REMARK   38  A    between atoms: _98  and  _99
REMARK   39  A    between atoms: _101  and  _103
REMARK   40  A    between atoms: _103  and  _104
REMARK   41  A    between atoms: _103  and  _106
REMARK   42  A    between atoms: _106  and  _107
REMARK   43  A    between atoms: _112  and  _113
REMARK   44  A    between atoms: _115  and  _117
REMARK   45  A    between atoms: _117  and  _118
REMARK   46  A    between atoms: _117  and  _120
REMARK   47  A    between atoms: _120  and  _121
REMARK   48  A    between atoms: _124  and  _126
REMARK   49  A    between atoms: _126  and  _127
REMARK   50  A    between atoms: _126  and  _129
REMARK   51  A    between atoms: _129  and  _130
REMARK   52  A    between atoms: _140  and  _142
REMARK   53  A    between atoms: _142  and  _143
REMARK   54  A    between atoms: _142  and  _145
REMARK   55  A    between atoms: _145  and  _146
REMARK   56  A    between atoms: _146  and  _147
REMARK   57  A    between atoms: _152  and  _154
REMARK   58  A    between atoms: _154  and  _155
REMARK   59  A    between atoms: _158  and  _160
REMARK   60  A    between atoms: _160  and  _161
REMARK   61  A    between atoms: _163  and  _165
REMARK   62  A    between atoms: _165  and  _166
REMARK   63  A    between atoms: _165  and  _168
REMARK   64  A    between atoms: _168  and  _169
REMARK   65  A    between atoms: _174  and  _175
REMARK   66  A    between atoms: _177  and  _179
REMARK   67  A    between atoms: _179  and  _180
REMARK   68  A    between atoms: _179  and  _182
REMARK   69  A    between atoms: _182  and  _183
REMARK   70  A    between atoms: _188  and  _190
REMARK   71  A    between atoms: _190  and  _191
REMARK   72  A    between atoms: _190  and  _193
REMARK   73  A    between atoms: _193  and  _194
REMARK   74  A    between atoms: _198  and  _199
REMARK   75  A    between atoms: _204  and  _206
REMARK   76  A    between atoms: _206  and  _207
REMARK   77  A    between atoms: _206  and  _209
REMARK   78  A    between atoms: _209  and  _210
REMARK   79  A    between atoms: _215  and  _216
REMARK   80  A    between atoms: _219  and  _220
REMARK   81  A    between atoms: _225  and  _227
REMARK   82  A    between atoms: _227  and  _228
REMARK   83  A    between atoms: _227  and  _230
REMARK   84  A    between atoms: _230  and  _231
REMARK   85  A    between atoms: _241  and  _243
REMARK   86  A    between atoms: _243  and  _244
REMARK   87  A    between atoms: _243  and  _246
REMARK   88  A    between atoms: _246  and  _247
REMARK   89  A    between atoms: _247  and  _248
REMARK   90  A    between atoms: _248  and  _249
REMARK   91  A    between atoms: _258  and  _260
REMARK   92  A    between atoms: _260  and  _261
REMARK   93  A    between atoms: _260  and  _263
REMARK   94  A    between atoms: _263  and  _264
REMARK   95  A    between atoms: _269  and  _271
REMARK   96  A    between atoms: _271  and  _272
REMARK   97  A    between atoms: _271  and  _274
REMARK   98  A    between atoms: _274  and  _275
REMARK   99  A    between atoms: _275  and  _276
REMARK  100  A    between atoms: _279  and  _281
REMARK  101  A    between atoms: _281  and  _282
REMARK  102  A    between atoms: _281  and  _284
REMARK  103  A    between atoms: _284  and  _285
REMARK  104  A    between atoms: _295  and  _297
REMARK  105  A    between atoms: _297  and  _298
REMARK  106  A    between atoms: _297  and  _300
REMARK  107  A    between atoms: _300  and  _301
REMARK  108  A    between atoms: _304  and  _305
REMARK  109  A    between atoms: _310  and  _312
REMARK  110  A    between atoms: _312  and  _313
REMARK  111  A    between atoms: _316  and  _318
REMARK  112  A    between atoms: _329  and  _332
REMARK  113  A    between atoms: _332  and  _333
REMARK  114  A    between atoms: _338  and  _339
REMARK  115  A    between atoms: _347  and  _349
REMARK  116  A    between atoms: _349  and  _350
REMARK  117  A    between atoms: _349  and  _352
REMARK  118  A    between atoms: _352  and  _353
REMARK  119  A    between atoms: _353  and  _354
REMARK  120  A    between atoms: _359  and  _361
REMARK  121  A    between atoms: _361  and  _362
REMARK  122  A    between atoms: _361  and  _364
REMARK  123  A    between atoms: _364  and  _365
REMARK  124  A    between atoms: _370  and  _371
REMARK  125  A    between atoms: _373  and  _375
REMARK  126  A    between atoms: _375  and  _376
REMARK  127  A    between atoms: _375  and  _378
REMARK  128  A    between atoms: _380  and  _382
REMARK  129  A    between atoms: _382  and  _383
REMARK  130  A    between atoms: _382  and  _385
REMARK  131  A    between atoms: _385  and  _386
REMARK                            x       y       z     vdW  Elec       q    Type
REMARK                         _______ _______ _______ _____ _____    ______ ____
ROOT
ATOM      1  O   HOH     1       4.072 -10.739  42.658  0.00  0.00    +0.000 OA
ENDROOT
TORSDOF 0
REMARK  Name = ../refined-set-2016/2buv/2buv_pocket.pdb
REMARK  131 active torsions:
REMARK  status: ('A' for Active; 'I' for Inactive)
REMARK    1  A    between atoms: _1  and  _3
REMARK    2  A    between atoms: _3  and  _4
REMARK    3  A    between atoms: _3  and  _6
REMARK    4  A    between atoms: _6  and  _7
REMARK    5  A    between atoms: _7  and  _8
REMARK    6  A    between atoms: _13  and  _15
REMARK    7  A    between atoms: _15  and  _16
REMARK    8  A    between atoms: _15  and  _18
REMARK    9  A    between atoms: _18  and  _19
REMARK   10  A    between atoms: _22  and  _24
REMARK   11  A    between atoms: _24  and  _25
REMARK   12  A    between atoms: _27  and  _29
REMARK   13  A    between atoms: _29  and  _30
REMARK   14  A    between atoms: _33  and  _34
REMARK   15  A    between atoms: _39  and  _41
REMARK   16  A    between atoms: _41  and  _42
REMARK   17  A    between atoms: _41  and  _44
REMARK   18  A    between atoms: _44  and  _45
REMARK   19  A    between atoms: _50  and  _51
REMARK   20  A    between atoms: _53  and  _55
REMARK   21  A    between atoms: _55  and  _56
REMARK   22  A    between atoms: _55  and  _58
REMARK   23  A    between atoms: _61  and  _63
REMARK   24  A    between atoms: _63  and  _64
REMARK   25  A    between atoms: _63  and  _66
REMARK   26  A    between atoms: _66  and  _67
REMARK   27  A    between atoms: _70  and  _72
REMARK   28  A    between atoms: _72  and  _73
REMARK   29  A    between atoms: _72  and  _75
REMARK   30  A    between atoms: _75  and  _76
REMARK   31  A    between atoms: _79  and  _81
REMARK   32  A    between atoms: _81  and  _82
REMARK   33  A    between atoms: _81  and  _84
REMARK   34  A    between atoms: _84  and  _85
REMARK   35  A    between atoms: _85  and  _86
REMARK   36  A    between atoms: _86  and  _87
REMARK   37  A    between atoms: _96  and  _98
REMARK   38  A    between atoms: _98  and  _99
REMARK   39  A    between atoms: _101  and  _103
REMARK   40  A    between atoms: _103  and  _104
REMARK   41  A    between atoms: _103  and  _106
REMARK   42  A    between atoms: _106  and  _107
REMARK   43  A    between atoms: _112  and  _113
REMARK   44  A    between atoms: _115  and  _117
REMARK   45  A    between atoms: _117  and  _118
REMARK   46  A    between atoms: _117  and  _120
REMARK   47  A    between atoms: _120  and  _121
REMARK   48  A    between atoms: _124  and  _126
REMARK   49  A    between atoms: _126  and  _127
REMARK   50  A    between atoms: _126  and  _129
REMARK   51  A    between atoms: _129  and  _130
REMARK   52  A    between atoms: _140  and  _142
REMARK   53  A    between atoms: _142  and  _143
REMARK   54  A    between atoms: _142  and  _145
REMARK   55  A    between atoms: _145  and  _146
REMARK   56  A    between atoms: _146  and  _147
REMARK   57  A    between atoms: _152  and  _154
REMARK   58  A    between atoms: _154  and  _155
REMARK   59  A    between atoms: _158  and  _160
REMARK   60  A    between atoms: _160  and  _161
REMARK   61  A    between atoms: _163  and  _165
REMARK   62  A    between atoms: _165  and  _166
REMARK   63  A    between atoms: _165  and  _168
REMARK   64  A    between atoms: _168  and  _169
REMARK   65  A    between atoms: _174  and  _175
REMARK   66  A    between atoms: _177  and  _179
REMARK   67  A    between atoms: _179  and  _180
REMARK   68  A    between atoms: _179  and  _182
REMARK   69  A    between atoms: _182  and  _183
REMARK   70  A    between atoms: _188  and  _190
REMARK   71  A    between atoms: _190  and  _191
REMARK   72  A    between atoms: _190  and  _193
REMARK   73  A    between atoms: _193  and  _194
REMARK   74  A    between atoms: _198  and  _199
REMARK   75  A    between atoms: _204  and  _206
REMARK   76  A    between atoms: _206  and  _207
REMARK   77  A    between atoms: _206  and  _209
REMARK   78  A    between atoms: _209  and  _210
REMARK   79  A    between atoms: _215  and  _216
REMARK   80  A    between atoms: _219  and  _220
REMARK   81  A    between atoms: _225  and  _227
REMARK   82  A    between atoms: _227  and  _228
REMARK   83  A    between atoms: _227  and  _230
REMARK   84  A    between atoms: _230  and  _231
REMARK   85  A    between atoms: _241  and  _243
REMARK   86  A    between atoms: _243  and  _244
REMARK   87  A    between atoms: _243  and  _246
REMARK   88  A    between atoms: _246  and  _247
REMARK   89  A    between atoms: _247  and  _248
REMARK   90  A    between atoms: _248  and  _249
REMARK   91  A    between atoms: _258  and  _260
REMARK   92  A    between atoms: _260  and  _261
REMARK   93  A    between atoms: _260  and  _263
REMARK   94  A    between atoms: _263  and  _264
REMARK   95  A    between atoms: _269  and  _271
REMARK   96  A    between atoms: _271  and  _272
REMARK   97  A    between atoms: _271  and  _274
REMARK   98  A    between atoms: _274  and  _275
REMARK   99  A    between atoms: _275  and  _276
REMARK  100  A    between atoms: _279  and  _281
REMARK  101  A    between atoms: _281  and  _282
REMARK  102  A    between atoms: _281  and  _284
REMARK  103  A    between atoms: _284  and  _285
REMARK  104  A    between atoms: _295  and  _297
REMARK  105  A    between atoms: _297  and  _298
REMARK  106  A    between atoms: _297  and  _300
REMARK  107  A    between atoms: _300  and  _301
REMARK  108  A    between atoms: _304  and  _305
REMARK  109  A    between atoms: _310  and  _312
REMARK  110  A    between atoms: _312  and  _313
REMARK  111  A    between atoms: _316  and  _318
REMARK  112  A    between atoms: _329  and  _332
REMARK  113  A    between atoms: _332  and  _333
REMARK  114  A    between atoms: _338  and  _339
REMARK  115  A    between atoms: _347  and  _349
REMARK  116  A    between atoms: _349  and  _350
REMARK  117  A    between atoms: _349  and  _352
REMARK  118  A    between atoms: _352  and  _353
REMARK  119  A    between atoms: _353  and  _354
REMARK  120  A    between atoms: _359  and  _361
REMARK  121  A    between atoms: _361  and  _362
REMARK  122  A    between atoms: _361  and  _364
REMARK  123  A    between atoms: _364  and  _365
REMARK  124  A    between atoms: _370  and  _371
REMARK  125  A    between atoms: _373  and  _375
REMARK  126  A    between atoms: _375  and  _376
REMARK  127  A    between atoms: _375  and  _378
REMARK  128  A    between atoms: _380  and  _382
REMARK  129  A    between atoms: _382  and  _383
REMARK  130  A    between atoms: _382  and  _385
REMARK  131  A    between atoms: _385  and  _386
REMARK                            x       y       z     vdW  Elec       q    Type
REMARK                         _______ _______ _______ _____ _____    ______ ____
ROOT
ATOM      1  O   HOH     1       4.920 -18.845  38.910  0.00  0.00    +0.000 OA
ENDROOT
TORSDOF 0
REMARK  Name = ../refined-set-2016/2buv/2buv_pocket.pdb
REMARK  131 active torsions:
REMARK  status: ('A' for Active; 'I' for Inactive)
REMARK    1  A    between atoms: _1  and  _3
REMARK    2  A    between atoms: _3  and  _4
REMARK    3  A    between atoms: _3  and  _6
REMARK    4  A    between atoms: _6  and  _7
REMARK    5  A    between atoms: _7  and  _8
REMARK    6  A    between atoms: _13  and  _15
REMARK    7  A    between atoms: _15  and  _16
REMARK    8  A    between atoms: _15  and  _18
REMARK    9  A    between atoms: _18  and  _19
REMARK   10  A    between atoms: _22  and  _24
REMARK   11  A    between atoms: _24  and  _25
REMARK   12  A    between atoms: _27  and  _29
REMARK   13  A    between atoms: _29  and  _30
REMARK   14  A    between atoms: _33  and  _34
REMARK   15  A    between atoms: _39  and  _41
REMARK   16  A    between atoms: _41  and  _42
REMARK   17  A    between atoms: _41  and  _44
REMARK   18  A    between atoms: _44  and  _45
REMARK   19  A    between atoms: _50  and  _51
REMARK   20  A    between atoms: _53  and  _55
REMARK   21  A    between atoms: _55  and  _56
REMARK   22  A    between atoms: _55  and  _58
REMARK   23  A    between atoms: _61  and  _63
REMARK   24  A    between atoms: _63  and  _64
REMARK   25  A    between atoms: _63  and  _66
REMARK   26  A    between atoms: _66  and  _67
REMARK   27  A    between atoms: _70  and  _72
REMARK   28  A    between atoms: _72  and  _73
REMARK   29  A    between atoms: _72  and  _75
REMARK   30  A    between atoms: _75  and  _76
REMARK   31  A    between atoms: _79  and  _81
REMARK   32  A    between atoms: _81  and  _82
REMARK   33  A    between atoms: _81  and  _84
REMARK   34  A    between atoms: _84  and  _85
REMARK   35  A    between atoms: _85  and  _86
REMARK   36  A    between atoms: _86  and  _87
REMARK   37  A    between atoms: _96  and  _98
REMARK   38  A    between atoms: _98  and  _99
REMARK   39  A    between atoms: _101  and  _103
REMARK   40  A    between atoms: _103  and  _104
REMARK   41  A    between atoms: _103  and  _106
REMARK   42  A    between atoms: _106  and  _107
REMARK   43  A    between atoms: _112  and  _113
REMARK   44  A    between atoms: _115  and  _117
REMARK   45  A    between atoms: _117  and  _118
REMARK   46  A    between atoms: _117  and  _120
REMARK   47  A    between atoms: _120  and  _121
REMARK   48  A    between atoms: _124  and  _126
REMARK   49  A    between atoms: _126  and  _127
REMARK   50  A    between atoms: _126  and  _129
REMARK   51  A    between atoms: _129  and  _130
REMARK   52  A    between atoms: _140  and  _142
REMARK   53  A    between atoms: _142  and  _143
REMARK   54  A    between atoms: _142  and  _145
REMARK   55  A    between atoms: _145  and  _146
REMARK   56  A    between atoms: _146  and  _147
REMARK   57  A    between atoms: _152  and  _154
REMARK   58  A    between atoms: _154  and  _155
REMARK   59  A    between atoms: _158  and  _160
REMARK   60  A    between atoms: _160  and  _161
REMARK   61  A    between atoms: _163  and  _165
REMARK   62  A    between atoms: _165  and  _166
REMARK   63  A    between atoms: _165  and  _168
REMARK   64  A    between atoms: _168  and  _169
REMARK   65  A    between atoms: _174  and  _175
REMARK   66  A    between atoms: _177  and  _179
REMARK   67  A    between atoms: _179  and  _180
REMARK   68  A    between atoms: _179  and  _182
REMARK   69  A    between atoms: _182  and  _183
REMARK   70  A    between atoms: _188  and  _190
REMARK   71  A    between atoms: _190  and  _191
REMARK   72  A    between atoms: _190  and  _193
REMARK   73  A    between atoms: _193  and  _194
REMARK   74  A    between atoms: _198  and  _199
REMARK   75  A    between atoms: _204  and  _206
REMARK   76  A    between atoms: _206  and  _207
REMARK   77  A    between atoms: _206  and  _209
REMARK   78  A    between atoms: _209  and  _210
REMARK   79  A    between atoms: _215  and  _216
REMARK   80  A    between atoms: _219  and  _220
REMARK   81  A    between atoms: _225  and  _227
REMARK   82  A    between atoms: _227  and  _228
REMARK   83  A    between atoms: _227  and  _230
REMARK   84  A    between atoms: _230  and  _231
REMARK   85  A    between atoms: _241  and  _243
REMARK   86  A    between atoms: _243  and  _244
REMARK   87  A    between atoms: _243  and  _246
REMARK   88  A    between atoms: _246  and  _247
REMARK   89  A    between atoms: _247  and  _248
REMARK   90  A    between atoms: _248  and  _249
REMARK   91  A    between atoms: _258  and  _260
REMARK   92  A    between atoms: _260  and  _261
REMARK   93  A    between atoms: _260  and  _263
REMARK   94  A    between atoms: _263  and  _264
REMARK   95  A    between atoms: _269  and  _271
REMARK   96  A    between atoms: _271  and  _272
REMARK   97  A    between atoms: _271  and  _274
REMARK   98  A    between atoms: _274  and  _275
REMARK   99  A    between atoms: _275  and  _276
REMARK  100  A    between atoms: _279  and  _281
REMARK  101  A    between atoms: _281  and  _282
REMARK  102  A    between atoms: _281  and  _284
REMARK  103  A    between atoms: _284  and  _285
REMARK  104  A    between atoms: _295  and  _297
REMARK  105  A    between atoms: _297  and  _298
REMARK  106  A    between atoms: _297  and  _300
REMARK  107  A    between atoms: _300  and  _301
REMARK  108  A    between atoms: _304  and  _305
REMARK  109  A    between atoms: _310  and  _312
REMARK  110  A    between atoms: _312  and  _313
REMARK  111  A    between atoms: _316  and  _318
REMARK  112  A    between atoms: _329  and  _332
REMARK  113  A    between atoms: _332  and  _333
REMARK  114  A    between atoms: _338  and  _339
REMARK  115  A    between atoms: _347  and  _349
REMARK  116  A    between atoms: _349  and  _350
REMARK  117  A    between atoms: _349  and  _352
REMARK  118  A    between atoms: _352  and  _353
REMARK  119  A    between atoms: _353  and  _354
REMARK  120  A    between atoms: _359  and  _361
REMARK  121  A    between atoms: _361  and  _362
REMARK  122  A    between atoms: _361  and  _364
REMARK  123  A    between atoms: _364  and  _365
REMARK  124  A    between atoms: _370  and  _371
REMARK  125  A    between atoms: _373  and  _375
REMARK  126  A    between atoms: _375  and  _376
REMARK  127  A    between atoms: _375  and  _378
REMARK  128  A    between atoms: _380  and  _382
REMARK  129  A    between atoms: _382  and  _383
REMARK  130  A    between atoms: _382  and  _385
REMARK  131  A    between atoms: _385  and  _386
REMARK                            x       y       z     vdW  Elec       q    Type
REMARK                         _______ _______ _______ _____ _____    ______ ____
ROOT
ATOM      1  O   HOH     1       8.169 -16.597  37.594  0.00  0.00    +0.000 OA
ENDROOT
TORSDOF 0
REMARK  Name = ../refined-set-2016/2buv/2buv_pocket.pdb
REMARK  131 active torsions:
REMARK  status: ('A' for Active; 'I' for Inactive)
REMARK    1  A    between atoms: _1  and  _3
REMARK    2  A    between atoms: _3  and  _4
REMARK    3  A    between atoms: _3  and  _6
REMARK    4  A    between atoms: _6  and  _7
REMARK    5  A    between atoms: _7  and  _8
REMARK    6  A    between atoms: _13  and  _15
REMARK    7  A    between atoms: _15  and  _16
REMARK    8  A    between atoms: _15  and  _18
REMARK    9  A    between atoms: _18  and  _19
REMARK   10  A    between atoms: _22  and  _24
REMARK   11  A    between atoms: _24  and  _25
REMARK   12  A    between atoms: _27  and  _29
REMARK   13  A    between atoms: _29  and  _30
REMARK   14  A    between atoms: _33  and  _34
REMARK   15  A    between atoms: _39  and  _41
REMARK   16  A    between atoms: _41  and  _42
REMARK   17  A    between atoms: _41  and  _44
REMARK   18  A    between atoms: _44  and  _45
REMARK   19  A    between atoms: _50  and  _51
REMARK   20  A    between atoms: _53  and  _55
REMARK   21  A    between atoms: _55  and  _56
REMARK   22  A    between atoms: _55  and  _58
REMARK   23  A    between atoms: _61  and  _63
REMARK   24  A    between atoms: _63  and  _64
REMARK   25  A    between atoms: _63  and  _66
REMARK   26  A    between atoms: _66  and  _67
REMARK   27  A    between atoms: _70  and  _72
REMARK   28  A    between atoms: _72  and  _73
REMARK   29  A    between atoms: _72  and  _75
REMARK   30  A    between atoms: _75  and  _76
REMARK   31  A    between atoms: _79  and  _81
REMARK   32  A    between atoms: _81  and  _82
REMARK   33  A    between atoms: _81  and  _84
REMARK   34  A    between atoms: _84  and  _85
REMARK   35  A    between atoms: _85  and  _86
REMARK   36  A    between atoms: _86  and  _87
REMARK   37  A    between atoms: _96  and  _98
REMARK   38  A    between atoms: _98  and  _99
REMARK   39  A    between atoms: _101  and  _103
REMARK   40  A    between atoms: _103  and  _104
REMARK   41  A    between atoms: _103  and  _106
REMARK   42  A    between atoms: _106  and  _107
REMARK   43  A    between atoms: _112  and  _113
REMARK   44  A    between atoms: _115  and  _117
REMARK   45  A    between atoms: _117  and  _118
REMARK   46  A    between atoms: _117  and  _120
REMARK   47  A    between atoms: _120  and  _121
REMARK   48  A    between atoms: _124  and  _126
REMARK   49  A    between atoms: _126  and  _127
REMARK   50  A    between atoms: _126  and  _129
REMARK   51  A    between atoms: _129  and  _130
REMARK   52  A    between atoms: _140  and  _142
REMARK   53  A    between atoms: _142  and  _143
REMARK   54  A    between atoms: _142  and  _145
REMARK   55  A    between atoms: _145  and  _146
REMARK   56  A    between atoms: _146  and  _147
REMARK   57  A    between atoms: _152  and  _154
REMARK   58  A    between atoms: _154  and  _155
REMARK   59  A    between atoms: _158  and  _160
REMARK   60  A    between atoms: _160  and  _161
REMARK   61  A    between atoms: _163  and  _165
REMARK   62  A    between atoms: _165  and  _166
REMARK   63  A    between atoms: _165  and  _168
REMARK   64  A    between atoms: _168  and  _169
REMARK   65  A    between atoms: _174  and  _175
REMARK   66  A    between atoms: _177  and  _179
REMARK   67  A    between atoms: _179  and  _180
REMARK   68  A    between atoms: _179  and  _182
REMARK   69  A    between atoms: _182  and  _183
REMARK   70  A    between atoms: _188  and  _190
REMARK   71  A    between atoms: _190  and  _191
REMARK   72  A    between atoms: _190  and  _193
REMARK   73  A    between atoms: _193  and  _194
REMARK   74  A    between atoms: _198  and  _199
REMARK   75  A    between atoms: _204  and  _206
REMARK   76  A    between atoms: _206  and  _207
REMARK   77  A    between atoms: _206  and  _209
REMARK   78  A    between atoms: _209  and  _210
REMARK   79  A    between atoms: _215  and  _216
REMARK   80  A    between atoms: _219  and  _220
REMARK   81  A    between atoms: _225  and  _227
REMARK   82  A    between atoms: _227  and  _228
REMARK   83  A    between atoms: _227  and  _230
REMARK   84  A    between atoms: _230  and  _231
REMARK   85  A    between atoms: _241  and  _243
REMARK   86  A    between atoms: _243  and  _244
REMARK   87  A    between atoms: _243  and  _246
REMARK   88  A    between atoms: _246  and  _247
REMARK   89  A    between atoms: _247  and  _248
REMARK   90  A    between atoms: _248  and  _249
REMARK   91  A    between atoms: _258  and  _260
REMARK   92  A    between atoms: _260  and  _261
REMARK   93  A    between atoms: _260  and  _263
REMARK   94  A    between atoms: _263  and  _264
REMARK   95  A    between atoms: _269  and  _271
REMARK   96  A    between atoms: _271  and  _272
REMARK   97  A    between atoms: _271  and  _274
REMARK   98  A    between atoms: _274  and  _275
REMARK   99  A    between atoms: _275  and  _276
REMARK  100  A    between atoms: _279  and  _281
REMARK  101  A    between atoms: _281  and  _282
REMARK  102  A    between atoms: _281  and  _284
REMARK  103  A    between atoms: _284  and  _285
REMARK  104  A    between atoms: _295  and  _297
REMARK  105  A    between atoms: _297  and  _298
REMARK  106  A    between atoms: _297  and  _300
REMARK  107  A    between atoms: _300  and  _301
REMARK  108  A    between atoms: _304  and  _305
REMARK  109  A    between atoms: _310  and  _312
REMARK  110  A    between atoms: _312  and  _313
REMARK  111  A    between atoms: _316  and  _318
REMARK  112  A    between atoms: _329  and  _332
REMARK  113  A    between atoms: _332  and  _333
REMARK  114  A    between atoms: _338  and  _339
REMARK  115  A    between atoms: _347  and  _349
REMARK  116  A    between atoms: _349  and  _350
REMARK  117  A    between atoms: _349  and  _352
REMARK  118  A    between atoms: _352  and  _353
REMARK  119  A    between atoms: _353  and  _354
REMARK  120  A    between atoms: _359  and  _361
REMARK  121  A    between atoms: _361  and  _362
REMARK  122  A    between atoms: _361  and  _364
REMARK  123  A    between atoms: _364  and  _365
REMARK  124  A    between atoms: _370  and  _371
REMARK  125  A    between atoms: _373  and  _375
REMARK  126  A    between atoms: _375  and  _376
REMARK  127  A    between atoms: _375  and  _378
REMARK  128  A    between atoms: _380  and  _382
REMARK  129  A    between atoms: _382  and  _383
REMARK  130  A    between atoms: _382  and  _385
REMARK  131  A    between atoms: _385  and  _386
REMARK                            x       y       z     vdW  Elec       q    Type
REMARK                         _______ _______ _______ _____ _____    ______ ____
ROOT
ATOM      1  O   HOH     1       8.224 -12.892  37.479  0.00  0.00    +0.000 OA
ENDROOT
TORSDOF 0
REMARK  Name = ../refined-set-2016/2buv/2buv_pocket.pdb
REMARK  131 active torsions:
REMARK  status: ('A' for Active; 'I' for Inactive)
REMARK    1  A    between atoms: _1  and  _3
REMARK    2  A    between atoms: _3  and  _4
REMARK    3  A    between atoms: _3  and  _6
REMARK    4  A    between atoms: _6  and  _7
REMARK    5  A    between atoms: _7  and  _8
REMARK    6  A    between atoms: _13  and  _15
REMARK    7  A    between atoms: _15  and  _16
REMARK    8  A    between atoms: _15  and  _18
REMARK    9  A    between atoms: _18  and  _19
REMARK   10  A    between atoms: _22  and  _24
REMARK   11  A    between atoms: _24  and  _25
REMARK   12  A    between atoms: _27  and  _29
REMARK   13  A    between atoms: _29  and  _30
REMARK   14  A    between atoms: _33  and  _34
REMARK   15  A    between atoms: _39  and  _41
REMARK   16  A    between atoms: _41  and  _42
REMARK   17  A    between atoms: _41  and  _44
REMARK   18  A    between atoms: _44  and  _45
REMARK   19  A    between atoms: _50  and  _51
REMARK   20  A    between atoms: _53  and  _55
REMARK   21  A    between atoms: _55  and  _56
REMARK   22  A    between atoms: _55  and  _58
REMARK   23  A    between atoms: _61  and  _63
REMARK   24  A    between atoms: _63  and  _64
REMARK   25  A    between atoms: _63  and  _66
REMARK   26  A    between atoms: _66  and  _67
REMARK   27  A    between atoms: _70  and  _72
REMARK   28  A    between atoms: _72  and  _73
REMARK   29  A    between atoms: _72  and  _75
REMARK   30  A    between atoms: _75  and  _76
REMARK   31  A    between atoms: _79  and  _81
REMARK   32  A    between atoms: _81  and  _82
REMARK   33  A    between atoms: _81  and  _84
REMARK   34  A    between atoms: _84  and  _85
REMARK   35  A    between atoms: _85  and  _86
REMARK   36  A    between atoms: _86  and  _87
REMARK   37  A    between atoms: _96  and  _98
REMARK   38  A    between atoms: _98  and  _99
REMARK   39  A    between atoms: _101  and  _103
REMARK   40  A    between atoms: _103  and  _104
REMARK   41  A    between atoms: _103  and  _106
REMARK   42  A    between atoms: _106  and  _107
REMARK   43  A    between atoms: _112  and  _113
REMARK   44  A    between atoms: _115  and  _117
REMARK   45  A    between atoms: _117  and  _118
REMARK   46  A    between atoms: _117  and  _120
REMARK   47  A    between atoms: _120  and  _121
REMARK   48  A    between atoms: _124  and  _126
REMARK   49  A    between atoms: _126  and  _127
REMARK   50  A    between atoms: _126  and  _129
REMARK   51  A    between atoms: _129  and  _130
REMARK   52  A    between atoms: _140  and  _142
REMARK   53  A    between atoms: _142  and  _143
REMARK   54  A    between atoms: _142  and  _145
REMARK   55  A    between atoms: _145  and  _146
REMARK   56  A    between atoms: _146  and  _147
REMARK   57  A    between atoms: _152  and  _154
REMARK   58  A    between atoms: _154  and  _155
REMARK   59  A    between atoms: _158  and  _160
REMARK   60  A    between atoms: _160  and  _161
REMARK   61  A    between atoms: _163  and  _165
REMARK   62  A    between atoms: _165  and  _166
REMARK   63  A    between atoms: _165  and  _168
REMARK   64  A    between atoms: _168  and  _169
REMARK   65  A    between atoms: _174  and  _175
REMARK   66  A    between atoms: _177  and  _179
REMARK   67  A    between atoms: _179  and  _180
REMARK   68  A    between atoms: _179  and  _182
REMARK   69  A    between atoms: _182  and  _183
REMARK   70  A    between atoms: _188  and  _190
REMARK   71  A    between atoms: _190  and  _191
REMARK   72  A    between atoms: _190  and  _193
REMARK   73  A    between atoms: _193  and  _194
REMARK   74  A    between atoms: _198  and  _199
REMARK   75  A    between atoms: _204  and  _206
REMARK   76  A    between atoms: _206  and  _207
REMARK   77  A    between atoms: _206  and  _209
REMARK   78  A    between atoms: _209  and  _210
REMARK   79  A    between atoms: _215  and  _216
REMARK   80  A    between atoms: _219  and  _220
REMARK   81  A    between atoms: _225  and  _227
REMARK   82  A    between atoms: _227  and  _228
REMARK   83  A    between atoms: _227  and  _230
REMARK   84  A    between atoms: _230  and  _231
REMARK   85  A    between atoms: _241  and  _243
REMARK   86  A    between atoms: _243  and  _244
REMARK   87  A    between atoms: _243  and  _246
REMARK   88  A    between atoms: _246  and  _247
REMARK   89  A    between atoms: _247  and  _248
REMARK   90  A    between atoms: _248  and  _249
REMARK   91  A    between atoms: _258  and  _260
REMARK   92  A    between atoms: _260  and  _261
REMARK   93  A    between atoms: _260  and  _263
REMARK   94  A    between atoms: _263  and  _264
REMARK   95  A    between atoms: _269  and  _271
REMARK   96  A    between atoms: _271  and  _272
REMARK   97  A    between atoms: _271  and  _274
REMARK   98  A    between atoms: _274  and  _275
REMARK   99  A    between atoms: _275  and  _276
REMARK  100  A    between atoms: _279  and  _281
REMARK  101  A    between atoms: _281  and  _282
REMARK  102  A    between atoms: _281  and  _284
REMARK  103  A    between atoms: _284  and  _285
REMARK  104  A    between atoms: _295  and  _297
REMARK  105  A    between atoms: _297  and  _298
REMARK  106  A    between atoms: _297  and  _300
REMARK  107  A    between atoms: _300  and  _301
REMARK  108  A    between atoms: _304  and  _305
REMARK  109  A    between atoms: _310  and  _312
REMARK  110  A    between atoms: _312  and  _313
REMARK  111  A    between atoms: _316  and  _318
REMARK  112  A    between atoms: _329  and  _332
REMARK  113  A    between atoms: _332  and  _333
REMARK  114  A    between atoms: _338  and  _339
REMARK  115  A    between atoms: _347  and  _349
REMARK  116  A    between atoms: _349  and  _350
REMARK  117  A    between atoms: _349  and  _352
REMARK  118  A    between atoms: _352  and  _353
REMARK  119  A    between atoms: _353  and  _354
REMARK  120  A    between atoms: _359  and  _361
REMARK  121  A    between atoms: _361  and  _362
REMARK  122  A    between atoms: _361  and  _364
REMARK  123  A    between atoms: _364  and  _365
REMARK  124  A    between atoms: _370  and  _371
REMARK  125  A    between atoms: _373  and  _375
REMARK  126  A    between atoms: _375  and  _376
REMARK  127  A    between atoms: _375  and  _378
REMARK  128  A    between atoms: _380  and  _382
REMARK  129  A    between atoms: _382  and  _383
REMARK  130  A    between atoms: _382  and  _385
REMARK  131  A    between atoms: _385  and  _386
REMARK                            x       y       z     vdW  Elec       q    Type
REMARK                         _______ _______ _______ _____ _____    ______ ____
ROOT
ATOM      1  O   HOH     1      13.157 -16.653  39.736  0.00  0.00    +0.000 OA
ENDROOT
TORSDOF 0
REMARK  Name = ../refined-set-2016/2buv/2buv_pocket.pdb
REMARK  131 active torsions:
REMARK  status: ('A' for Active; 'I' for Inactive)
REMARK    1  A    between atoms: _1  and  _3
REMARK    2  A    between atoms: _3  and  _4
REMARK    3  A    between atoms: _3  and  _6
REMARK    4  A    between atoms: _6  and  _7
REMARK    5  A    between atoms: _7  and  _8
REMARK    6  A    between atoms: _13  and  _15
REMARK    7  A    between atoms: _15  and  _16
REMARK    8  A    between atoms: _15  and  _18
REMARK    9  A    between atoms: _18  and  _19
REMARK   10  A    between atoms: _22  and  _24
REMARK   11  A    between atoms: _24  and  _25
REMARK   12  A    between atoms: _27  and  _29
REMARK   13  A    between atoms: _29  and  _30
REMARK   14  A    between atoms: _33  and  _34
REMARK   15  A    between atoms: _39  and  _41
REMARK   16  A    between atoms: _41  and  _42
REMARK   17  A    between atoms: _41  and  _44
REMARK   18  A    between atoms: _44  and  _45
REMARK   19  A    between atoms: _50  and  _51
REMARK   20  A    between atoms: _53  and  _55
REMARK   21  A    between atoms: _55  and  _56
REMARK   22  A    between atoms: _55  and  _58
REMARK   23  A    between atoms: _61  and  _63
REMARK   24  A    between atoms: _63  and  _64
REMARK   25  A    between atoms: _63  and  _66
REMARK   26  A    between atoms: _66  and  _67
REMARK   27  A    between atoms: _70  and  _72
REMARK   28  A    between atoms: _72  and  _73
REMARK   29  A    between atoms: _72  and  _75
REMARK   30  A    between atoms: _75  and  _76
REMARK   31  A    between atoms: _79  and  _81
REMARK   32  A    between atoms: _81  and  _82
REMARK   33  A    between atoms: _81  and  _84
REMARK   34  A    between atoms: _84  and  _85
REMARK   35  A    between atoms: _85  and  _86
REMARK   36  A    between atoms: _86  and  _87
REMARK   37  A    between atoms: _96  and  _98
REMARK   38  A    between atoms: _98  and  _99
REMARK   39  A    between atoms: _101  and  _103
REMARK   40  A    between atoms: _103  and  _104
REMARK   41  A    between atoms: _103  and  _106
REMARK   42  A    between atoms: _106  and  _107
REMARK   43  A    between atoms: _112  and  _113
REMARK   44  A    between atoms: _115  and  _117
REMARK   45  A    between atoms: _117  and  _118
REMARK   46  A    between atoms: _117  and  _120
REMARK   47  A    between atoms: _120  and  _121
REMARK   48  A    between atoms: _124  and  _126
REMARK   49  A    between atoms: _126  and  _127
REMARK   50  A    between atoms: _126  and  _129
REMARK   51  A    between atoms: _129  and  _130
REMARK   52  A    between atoms: _140  and  _142
REMARK   53  A    between atoms: _142  and  _143
REMARK   54  A    between atoms: _142  and  _145
REMARK   55  A    between atoms: _145  and  _146
REMARK   56  A    between atoms: _146  and  _147
REMARK   57  A    between atoms: _152  and  _154
REMARK   58  A    between atoms: _154  and  _155
REMARK   59  A    between atoms: _158  and  _160
REMARK   60  A    between atoms: _160  and  _161
REMARK   61  A    between atoms: _163  and  _165
REMARK   62  A    between atoms: _165  and  _166
REMARK   63  A    between atoms: _165  and  _168
REMARK   64  A    between atoms: _168  and  _169
REMARK   65  A    between atoms: _174  and  _175
REMARK   66  A    between atoms: _177  and  _179
REMARK   67  A    between atoms: _179  and  _180
REMARK   68  A    between atoms: _179  and  _182
REMARK   69  A    between atoms: _182  and  _183
REMARK   70  A    between atoms: _188  and  _190
REMARK   71  A    between atoms: _190  and  _191
REMARK   72  A    between atoms: _190  and  _193
REMARK   73  A    between atoms: _193  and  _194
REMARK   74  A    between atoms: _198  and  _199
REMARK   75  A    between atoms: _204  and  _206
REMARK   76  A    between atoms: _206  and  _207
REMARK   77  A    between atoms: _206  and  _209
REMARK   78  A    between atoms: _209  and  _210
REMARK   79  A    between atoms: _215  and  _216
REMARK   80  A    between atoms: _219  and  _220
REMARK   81  A    between atoms: _225  and  _227
REMARK   82  A    between atoms: _227  and  _228
REMARK   83  A    between atoms: _227  and  _230
REMARK   84  A    between atoms: _230  and  _231
REMARK   85  A    between atoms: _241  and  _243
REMARK   86  A    between atoms: _243  and  _244
REMARK   87  A    between atoms: _243  and  _246
REMARK   88  A    between atoms: _246  and  _247
REMARK   89  A    between atoms: _247  and  _248
REMARK   90  A    between atoms: _248  and  _249
REMARK   91  A    between atoms: _258  and  _260
REMARK   92  A    between atoms: _260  and  _261
REMARK   93  A    between atoms: _260  and  _263
REMARK   94  A    between atoms: _263  and  _264
REMARK   95  A    between atoms: _269  and  _271
REMARK   96  A    between atoms: _271  and  _272
REMARK   97  A    between atoms: _271  and  _274
REMARK   98  A    between atoms: _274  and  _275
REMARK   99  A    between atoms: _275  and  _276
REMARK  100  A    between atoms: _279  and  _281
REMARK  101  A    between atoms: _281  and  _282
REMARK  102  A    between atoms: _281  and  _284
REMARK  103  A    between atoms: _284  and  _285
REMARK  104  A    between atoms: _295  and  _297
REMARK  105  A    between atoms: _297  and  _298
REMARK  106  A    between atoms: _297  and  _300
REMARK  107  A    between atoms: _300  and  _301
REMARK  108  A    between atoms: _304  and  _305
REMARK  109  A    between atoms: _310  and  _312
REMARK  110  A    between atoms: _312  and  _313
REMARK  111  A    between atoms: _316  and  _318
REMARK  112  A    between atoms: _329  and  _332
REMARK  113  A    between atoms: _332  and  _333
REMARK  114  A    between atoms: _338  and  _339
REMARK  115  A    between atoms: _347  and  _349
REMARK  116  A    between atoms: _349  and  _350
REMARK  117  A    between atoms: _349  and  _352
REMARK  118  A    between atoms: _352  and  _353
REMARK  119  A    between atoms: _353  and  _354
REMARK  120  A    between atoms: _359  and  _361
REMARK  121  A    between atoms: _361  and  _362
REMARK  122  A    between atoms: _361  and  _364
REMARK  123  A    between atoms: _364  and  _365
REMARK  124  A    between atoms: _370  and  _371
REMARK  125  A    between atoms: _373  and  _375
REMARK  126  A    between atoms: _375  and  _376
REMARK  127  A    between atoms: _375  and  _378
REMARK  128  A    between atoms: _380  and  _382
REMARK  129  A    between atoms: _382  and  _383
REMARK  130  A    between atoms: _382  and  _385
REMARK  131  A    between atoms: _385  and  _386
REMARK                            x       y       z     vdW  Elec       q    Type
REMARK                         _______ _______ _______ _____ _____    ______ ____
ROOT
ATOM      1  O   HOH     1      16.410 -16.012  39.870  0.00  0.00    +0.000 OA
ENDROOT
TORSDOF 0
