REMARK  Name = ../refined-set-2016/4b3d/4b3d_pocket.pdb
REMARK  104 active torsions:
REMARK  status: ('A' for Active; 'I' for Inactive)
REMARK    1  A    between atoms: _1  and  _3
REMARK    2  A    between atoms: _3  and  _4
REMARK    3  A    between atoms: _3  and  _6
REMARK    4  A    between atoms: _9  and  _11
REMARK    5  A    between atoms: _11  and  _12
REMARK    6  A    between atoms: _11  and  _14
REMARK    7  A    between atoms: _14  and  _15
REMARK    8  A    between atoms: _15  and  _16
REMARK    9  A    between atoms: _18  and  _20
REMARK   10  A    between atoms: _20  and  _21
REMARK   11  A    between atoms: _20  and  _23
REMARK   12  A    between atoms: _23  and  _24
REMARK   13  A    between atoms: _34  and  _36
REMARK   14  A    between atoms: _36  and  _37
REMARK   15  A    between atoms: _36  and  _39
REMARK   16  A    between atoms: _39  and  _40
REMARK   17  A    between atoms: _43  and  _45
REMARK   18  A    between atoms: _45  and  _46
REMARK   19  A    between atoms: _45  and  _48
REMARK   20  A    between atoms: _48  and  _49
REMARK   21  A    between atoms: _52  and  _54
REMARK   22  A    between atoms: _54  and  _55
REMARK   23  A    between atoms: _54  and  _57
REMARK   24  A    between atoms: _57  and  _58
REMARK   25  A    between atoms: _61  and  _63
REMARK   26  A    between atoms: _63  and  _64
REMARK   27  A    between atoms: _67  and  _69
REMARK   28  A    between atoms: _69  and  _70
REMARK   29  A    between atoms: _69  and  _72
REMARK   30  A    between atoms: _72  and  _73
REMARK   31  A    between atoms: _78  and  _79
REMARK   32  A    between atoms: _81  and  _83
REMARK   33  A    between atoms: _83  and  _84
REMARK   34  A    between atoms: _87  and  _89
REMARK   35  A    between atoms: _89  and  _90
REMARK   36  A    between atoms: _89  and  _92
REMARK   37  A    between atoms: _92  and  _93
REMARK   38  A    between atoms: _93  and  _94
REMARK   39  A    between atoms: _94  and  _95
REMARK   40  A    between atoms: _104  and  _106
REMARK   41  A    between atoms: _106  and  _107
REMARK   42  A    between atoms: _106  and  _109
REMARK   43  A    between atoms: _109  and  _110
REMARK   44  A    between atoms: _115  and  _117
REMARK   45  A    between atoms: _117  and  _118
REMARK   46  A    between atoms: _117  and  _120
REMARK   47  A    between atoms: _120  and  _121
REMARK   48  A    between atoms: _121  and  _122
REMARK   49  A    between atoms: _127  and  _129
REMARK   50  A    between atoms: _129  and  _130
REMARK   51  A    between atoms: _129  and  _132
REMARK   52  A    between atoms: _132  and  _133
REMARK   53  A    between atoms: _136  and  _138
REMARK   54  A    between atoms: _138  and  _139
REMARK   55  A    between atoms: _138  and  _141
REMARK   56  A    between atoms: _141  and  _142
REMARK   57  A    between atoms: _145  and  _147
REMARK   58  A    between atoms: _147  and  _148
REMARK   59  A    between atoms: _147  and  _150
REMARK   60  A    between atoms: _153  and  _155
REMARK   61  A    between atoms: _155  and  _156
REMARK   62  A    between atoms: _155  and  _158
REMARK   63  A    between atoms: _158  and  _159
REMARK   64  A    between atoms: _159  and  _160
REMARK   65  A    between atoms: _165  and  _167
REMARK   66  A    between atoms: _167  and  _168
REMARK   67  A    between atoms: _167  and  _170
REMARK   68  A    between atoms: _170  and  _171
REMARK   69  A    between atoms: _171  and  _172
REMARK   70  A    between atoms: _177  and  _179
REMARK   71  A    between atoms: _179  and  _180
REMARK   72  A    between atoms: _183  and  _185
REMARK   73  A    between atoms: _185  and  _186
REMARK   74  A    between atoms: _185  and  _188
REMARK   75  A    between atoms: _188  and  _189
REMARK   76  A    between atoms: _189  and  _190
REMARK   77  A    between atoms: _193  and  _195
REMARK   78  A    between atoms: _195  and  _196
REMARK   79  A    between atoms: _195  and  _198
REMARK   80  A    between atoms: _198  and  _199
REMARK   81  A    between atoms: _202  and  _204
REMARK   82  A    between atoms: _204  and  _205
REMARK   83  A    between atoms: _204  and  _207
REMARK   84  A    between atoms: _207  and  _208
REMARK   85  A    between atoms: _208  and  _209
REMARK   86  A    between atoms: _211  and  _213
REMARK   87  A    between atoms: _213  and  _214
REMARK   88  A    between atoms: _213  and  _216
REMARK   89  A    between atoms: _216  and  _217
REMARK   90  A    between atoms: _220  and  _222
REMARK   91  A    between atoms: _222  and  _223
REMARK   92  A    between atoms: _222  and  _225
REMARK   93  A    between atoms: _225  and  _226
REMARK   94  A    between atoms: _229  and  _231
REMARK   95  A    between atoms: _231  and  _232
REMARK   96  A    between atoms: _231  and  _234
REMARK   97  A    between atoms: _234  and  _235
REMARK   98  A    between atoms: _238  and  _240
REMARK   99  A    between atoms: _240  and  _241
REMARK  100  A    between atoms: _240  and  _243
REMARK  101  A    between atoms: _246  and  _248
REMARK  102  A    between atoms: _248  and  _249
REMARK  103  A    between atoms: _248  and  _251
REMARK  104  A    between atoms: _251  and  _252
REMARK                            x       y       z     vdW  Elec       q    Type
REMARK                         _______ _______ _______ _____ _____    ______ ____
ROOT
ATOM      1  CA  TRP A   3      12.465   4.255   0.968  0.00  0.00    +0.153 C 
ENDROOT
BRANCH   1   3
ATOM      2  C   MET A   2      12.547   4.993  -1.352  0.00  0.00    +0.241 C 
ATOM      3  N   TRP A   3      11.941   5.012  -0.171  0.00  0.00    -0.297 N 
ATOM      4  H   TRP A   3      11.076   5.576  -0.052  0.00  0.00    +0.150 HD
ATOM      5  O   MET A   2      13.501   4.260  -1.603  0.00  0.00    -0.273 OA
BRANCH   2   6
ATOM      6  CA  MET A   2      12.039   5.989  -2.390  0.00  0.00    +0.149 C 
BRANCH   6   9
ATOM      7  C   VAL A   1      13.396   7.890  -3.050  0.00  0.00    +0.238 C 
ATOM      8  O   VAL A   1      12.525   8.687  -2.725  0.00  0.00    -0.274 OA
ATOM      9  N   MET A   2      13.198   6.569  -3.057  0.00  0.00    -0.297 N 
ATOM     10  H   MET A   2      13.877   5.949  -3.543  0.00  0.00    +0.150 HD
BRANCH   7  11
ATOM     11  CA  VAL A   1      14.771   8.386  -3.471  0.00  0.00    +0.145 C 
BRANCH  11  12
ATOM     12  CB  VAL A   1      15.603   8.620  -2.187  0.00  0.00    +0.025 C 
ATOM     13  CG2 VAL A   1      15.745   7.319  -1.353  0.00  0.00    +0.002 C 
ATOM     14  CG1 VAL A   1      16.961   9.181  -2.534  0.00  0.00    +0.002 C 
ENDBRANCH  11  12
BRANCH  11  15
ATOM     15  N   VAL A   1      14.655   9.634  -4.225  0.00  0.00    -0.238 NA
ATOM     16  H   VAL A   1      14.106  10.420  -3.823  0.00  0.00    +0.142 HD
ENDBRANCH  11  15
ENDBRANCH   7  11
ENDBRANCH   6   9
BRANCH   6  17
ATOM     17  CB  MET A   2      11.097   5.332  -3.402  0.00  0.00    +0.041 C 
BRANCH  17  18
ATOM     18  CG  MET A   2      10.624   6.322  -4.463  0.00  0.00    +0.060 C 
BRANCH  18  19
ATOM     19  SD  MET A   2       9.286   5.725  -5.492  0.00  0.00    -0.139 S 
ATOM     20  CE  MET A   2       7.921   5.753  -4.336  0.00  0.00    +0.069 C 
ENDBRANCH  18  19
ENDBRANCH  17  18
ENDBRANCH   6  17
ENDBRANCH   2   6
ENDBRANCH   1   3
BRANCH   1  21
ATOM     21  C   TRP A   3      11.336   3.467   1.619  0.00  0.00    +0.241 C 
ATOM     22  O   TRP A   3      10.348   4.048   2.069  0.00  0.00    -0.273 OA
ATOM     23  N   ILE A   4      11.471   2.140   1.640  0.00  0.00    -0.297 N 
ATOM     24  H   ILE A   4      12.269   1.713   1.128  0.00  0.00    +0.150 HD
BRANCH  23  25
ATOM     25  CA  ILE A   4      10.542   1.258   2.354  0.00  0.00    +0.149 C 
BRANCH  25  26
ATOM     26  C   ILE A   4      11.218   0.735   3.631  0.00  0.00    +0.241 C 
ATOM     27  N   ASP A   5      10.637   1.080   4.778  0.00  0.00    -0.298 N 
ATOM     28  H   ASP A   5       9.720   1.568   4.732  0.00  0.00    +0.150 HD
ATOM     29  O   ILE A   4      12.238   0.051   3.572  0.00  0.00    -0.273 OA
BRANCH  27  30
ATOM     30  CA  ASP A   5      11.207   0.816   6.096  0.00  0.00    +0.148 C 
BRANCH  30  31
ATOM     31  C   ASP A   5      10.339  -0.239   6.787  0.00  0.00    +0.227 C 
ATOM     32  O   ASP A   5       9.133  -0.043   6.953  0.00  0.00    -0.286 OA
ENDBRANCH  30  31
BRANCH  30  33
ATOM     33  CB  ASP A   5      11.192   2.144   6.876  0.00  0.00    +0.142 C 
BRANCH  33  34
ATOM     34  CG  ASP A   5      11.871   2.079   8.243  0.00  0.00    +0.367 C 
ATOM     35  OD2 ASP A   5      11.927   3.152   8.893  0.00  0.00    -0.246 OA
ATOM     36  OD1 ASP A   5      12.335   1.008   8.688  0.00  0.00    -0.246 OA
ENDBRANCH  33  34
ENDBRANCH  30  33
ENDBRANCH  27  30
ENDBRANCH  25  26
BRANCH  25  37
ATOM     37  CB  ILE A   4      10.100   0.056   1.475  0.00  0.00    +0.027 C 
ATOM     38  CG2 ILE A   4       9.257  -0.939   2.284  0.00  0.00    +0.002 C 
BRANCH  37  39
ATOM     39  CG1 ILE A   4       9.335   0.543   0.239  0.00  0.00    +0.002 C 
ATOM     40  CD1 ILE A   4       9.068  -0.508  -0.794  0.00  0.00    +0.000 C 
ENDBRANCH  37  39
ENDBRANCH  25  37
ENDBRANCH  23  25
ENDBRANCH   1  21
BRANCH   1  41
ATOM     41  CB  TRP A   3      13.091   5.242   1.978  0.00  0.00    +0.057 C 
BRANCH  41  42
ATOM     42  CG  TRP A   3      13.833   4.622   3.143  0.00  0.00    -0.002 A 
ATOM     43  CD1 TRP A   3      13.388   3.628   3.981  0.00  0.00    +0.068 A 
ATOM     44  NE1 TRP A   3      14.348   3.355   4.933  0.00  0.00    -0.352 N 
ATOM     45  HE1 TRP A   3      14.265   2.642   5.686  0.00  0.00    +0.166 HD
ATOM     46  CE2 TRP A   3      15.429   4.173   4.729  0.00  0.00    +0.056 A 
ATOM     47  CZ2 TRP A   3      16.642   4.262   5.430  0.00  0.00    +0.017 A 
ATOM     48  CH2 TRP A   3      17.554   5.189   5.002  0.00  0.00    +0.001 A 
ATOM     49  CZ3 TRP A   3      17.286   6.026   3.894  0.00  0.00    +0.000 A 
ATOM     50  CE3 TRP A   3      16.092   5.930   3.192  0.00  0.00    +0.001 A 
ATOM     51  CD2 TRP A   3      15.140   4.990   3.613  0.00  0.00    +0.013 A 
ENDBRANCH  41  42
ENDBRANCH   1  41
TORSDOF 20
REMARK  Name = ../refined-set-2016/4b3d/4b3d_pocket.pdb
REMARK  104 active torsions:
REMARK  status: ('A' for Active; 'I' for Inactive)
REMARK    1  A    between atoms: _1  and  _3
REMARK    2  A    between atoms: _3  and  _4
REMARK    3  A    between atoms: _3  and  _6
REMARK    4  A    between atoms: _9  and  _11
REMARK    5  A    between atoms: _11  and  _12
REMARK    6  A    between atoms: _11  and  _14
REMARK    7  A    between atoms: _14  and  _15
REMARK    8  A    between atoms: _15  and  _16
REMARK    9  A    between atoms: _18  and  _20
REMARK   10  A    between atoms: _20  and  _21
REMARK   11  A    between atoms: _20  and  _23
REMARK   12  A    between atoms: _23  and  _24
REMARK   13  A    between atoms: _34  and  _36
REMARK   14  A    between atoms: _36  and  _37
REMARK   15  A    between atoms: _36  and  _39
REMARK   16  A    between atoms: _39  and  _40
REMARK   17  A    between atoms: _43  and  _45
REMARK   18  A    between atoms: _45  and  _46
REMARK   19  A    between atoms: _45  and  _48
REMARK   20  A    between atoms: _48  and  _49
REMARK   21  A    between atoms: _52  and  _54
REMARK   22  A    between atoms: _54  and  _55
REMARK   23  A    between atoms: _54  and  _57
REMARK   24  A    between atoms: _57  and  _58
REMARK   25  A    between atoms: _61  and  _63
REMARK   26  A    between atoms: _63  and  _64
REMARK   27  A    between atoms: _67  and  _69
REMARK   28  A    between atoms: _69  and  _70
REMARK   29  A    between atoms: _69  and  _72
REMARK   30  A    between atoms: _72  and  _73
REMARK   31  A    between atoms: _78  and  _79
REMARK   32  A    between atoms: _81  and  _83
REMARK   33  A    between atoms: _83  and  _84
REMARK   34  A    between atoms: _87  and  _89
REMARK   35  A    between atoms: _89  and  _90
REMARK   36  A    between atoms: _89  and  _92
REMARK   37  A    between atoms: _92  and  _93
REMARK   38  A    between atoms: _93  and  _94
REMARK   39  A    between atoms: _94  and  _95
REMARK   40  A    between atoms: _104  and  _106
REMARK   41  A    between atoms: _106  and  _107
REMARK   42  A    between atoms: _106  and  _109
REMARK   43  A    between atoms: _109  and  _110
REMARK   44  A    between atoms: _115  and  _117
REMARK   45  A    between atoms: _117  and  _118
REMARK   46  A    between atoms: _117  and  _120
REMARK   47  A    between atoms: _120  and  _121
REMARK   48  A    between atoms: _121  and  _122
REMARK   49  A    between atoms: _127  and  _129
REMARK   50  A    between atoms: _129  and  _130
REMARK   51  A    between atoms: _129  and  _132
REMARK   52  A    between atoms: _132  and  _133
REMARK   53  A    between atoms: _136  and  _138
REMARK   54  A    between atoms: _138  and  _139
REMARK   55  A    between atoms: _138  and  _141
REMARK   56  A    between atoms: _141  and  _142
REMARK   57  A    between atoms: _145  and  _147
REMARK   58  A    between atoms: _147  and  _148
REMARK   59  A    between atoms: _147  and  _150
REMARK   60  A    between atoms: _153  and  _155
REMARK   61  A    between atoms: _155  and  _156
REMARK   62  A    between atoms: _155  and  _158
REMARK   63  A    between atoms: _158  and  _159
REMARK   64  A    between atoms: _159  and  _160
REMARK   65  A    between atoms: _165  and  _167
REMARK   66  A    between atoms: _167  and  _168
REMARK   67  A    between atoms: _167  and  _170
REMARK   68  A    between atoms: _170  and  _171
REMARK   69  A    between atoms: _171  and  _172
REMARK   70  A    between atoms: _177  and  _179
REMARK   71  A    between atoms: _179  and  _180
REMARK   72  A    between atoms: _183  and  _185
REMARK   73  A    between atoms: _185  and  _186
REMARK   74  A    between atoms: _185  and  _188
REMARK   75  A    between atoms: _188  and  _189
REMARK   76  A    between atoms: _189  and  _190
REMARK   77  A    between atoms: _193  and  _195
REMARK   78  A    between atoms: _195  and  _196
REMARK   79  A    between atoms: _195  and  _198
REMARK   80  A    between atoms: _198  and  _199
REMARK   81  A    between atoms: _202  and  _204
REMARK   82  A    between atoms: _204  and  _205
REMARK   83  A    between atoms: _204  and  _207
REMARK   84  A    between atoms: _207  and  _208
REMARK   85  A    between atoms: _208  and  _209
REMARK   86  A    between atoms: _211  and  _213
REMARK   87  A    between atoms: _213  and  _214
REMARK   88  A    between atoms: _213  and  _216
REMARK   89  A    between atoms: _216  and  _217
REMARK   90  A    between atoms: _220  and  _222
REMARK   91  A    between atoms: _222  and  _223
REMARK   92  A    between atoms: _222  and  _225
REMARK   93  A    between atoms: _225  and  _226
REMARK   94  A    between atoms: _229  and  _231
REMARK   95  A    between atoms: _231  and  _232
REMARK   96  A    between atoms: _231  and  _234
REMARK   97  A    between atoms: _234  and  _235
REMARK   98  A    between atoms: _238  and  _240
REMARK   99  A    between atoms: _240  and  _241
REMARK  100  A    between atoms: _240  and  _243
REMARK  101  A    between atoms: _246  and  _248
REMARK  102  A    between atoms: _248  and  _249
REMARK  103  A    between atoms: _248  and  _251
REMARK  104  A    between atoms: _251  and  _252
REMARK                            x       y       z     vdW  Elec       q    Type
REMARK                         _______ _______ _______ _____ _____    ______ ____
ROOT
ATOM      1  CA  TYR A   3       9.163   7.383   2.741  0.00  0.00    +0.153 C 
ENDROOT
BRANCH   1   3
ATOM      2  C   ALA A   2       9.624   8.234   0.519  0.00  0.00    +0.241 C 
ATOM      3  N   TYR A   3       8.974   8.353   1.666  0.00  0.00    -0.297 N 
ATOM      4  H   TYR A   3       8.319   9.149   1.804  0.00  0.00    +0.150 HD
ATOM      5  O   ALA A   2      10.217   7.217   0.194  0.00  0.00    -0.273 OA
BRANCH   2   6
ATOM      6  CA  ALA A   2       9.598   9.436  -0.404  0.00  0.00    +0.149 C 
ATOM      7  CB  ALA A   2       8.929   9.070  -1.725  0.00  0.00    +0.031 C 
BRANCH   6  10
ATOM      8  C   ILE A   1      11.588  10.742   0.202  0.00  0.00    +0.238 C 
ATOM      9  O   ILE A   1      11.025  11.285   1.158  0.00  0.00    -0.274 OA
ATOM     10  N   ALA A   2      10.973   9.893  -0.623  0.00  0.00    -0.297 N 
ATOM     11  H   ALA A   2      11.490   9.542  -1.454  0.00  0.00    +0.150 HD
BRANCH   8  12
ATOM     12  CA  ILE A   1      13.052  11.049  -0.099  0.00  0.00    +0.145 C 
BRANCH  12  13
ATOM     13  N   ILE A   1      13.205  12.435  -0.558  0.00  0.00    -0.238 NA
ATOM     14  H   ILE A   1      13.046  13.215   0.112  0.00  0.00    +0.142 HD
ENDBRANCH  12  13
BRANCH  12  15
ATOM     15  CB  ILE A   1      13.864  10.770   1.164  0.00  0.00    +0.025 C 
ATOM     16  CG2 ILE A   1      13.659   9.310   1.605  0.00  0.00    +0.002 C 
BRANCH  15  17
ATOM     17  CG1 ILE A   1      15.345  11.062   0.920  0.00  0.00    +0.002 C 
ATOM     18  CD1 ILE A   1      16.219  10.920   2.158  0.00  0.00    +0.000 C 
ENDBRANCH  15  17
ENDBRANCH  12  15
ENDBRANCH   8  12
ENDBRANCH   6  10
ENDBRANCH   2   6
ENDBRANCH   1   3
BRANCH   1  19
ATOM     19  C   TYR A   3       7.881   6.646   3.072  0.00  0.00    +0.241 C 
ATOM     20  N   ALA A   4       7.984   5.326   3.240  0.00  0.00    -0.297 N 
ATOM     21  H   ALA A   4       8.899   4.858   3.078  0.00  0.00    +0.150 HD
ATOM     22  O   TYR A   3       6.815   7.256   3.179  0.00  0.00    -0.273 OA
BRANCH  20  23
ATOM     23  CA  ALA A   4       6.838   4.535   3.646  0.00  0.00    +0.149 C 
ATOM     24  CB  ALA A   4       6.158   3.914   2.434  0.00  0.00    +0.031 C 
BRANCH  23  25
ATOM     25  C   ALA A   4       7.266   3.446   4.614  0.00  0.00    +0.241 C 
ATOM     26  N   ARG A   5       6.439   3.195   5.624  0.00  0.00    -0.298 N 
ATOM     27  H   ARG A   5       5.589   3.781   5.747  0.00  0.00    +0.150 HD
ATOM     28  O   ALA A   4       8.319   2.839   4.451  0.00  0.00    -0.273 OA
BRANCH  26  29
ATOM     29  CA  ARG A   5       6.705   2.109   6.564  0.00  0.00    +0.137 C 
BRANCH  29  30
ATOM     30  C   ARG A   5       5.852   0.902   6.195  0.00  0.00    +0.227 C 
ATOM     31  O   ARG A   5       4.631   1.014   6.075  0.00  0.00    -0.286 OA
ENDBRANCH  29  30
BRANCH  29  32
ATOM     32  CB  ARG A   5       6.408   2.562   7.995  0.00  0.00    +0.031 C 
BRANCH  32  33
ATOM     33  CG  ARG A   5       6.636   1.517   9.080  0.00  0.00    +0.045 C 
BRANCH  33  34
ATOM     34  CD  ARG A   5       8.109   1.261   9.341  0.00  0.00    +0.174 C 
BRANCH  34  35
ATOM     35  NE  ARG A   5       8.331   0.712  10.675  0.00  0.00    -0.265 N 
ATOM     36  HE  ARG A   5       8.751   1.337  11.392  0.00  0.00    +0.259 HD
ATOM     37  CZ  ARG A   5       8.032  -0.534  11.036  0.00  0.00    +0.342 C 
ATOM     38  NH2 ARG A   5       8.267  -0.948  12.274  0.00  0.00    -0.292 N 
ATOM     39 HH21 ARG A   5       8.687  -0.298  12.969  0.00  0.00    +0.255 HD
ATOM     40 HH22 ARG A   5       8.031  -1.923  12.550  0.00  0.00    +0.255 HD
ATOM     41  NH1 ARG A   5       7.491  -1.371  10.164  0.00  0.00    -0.292 N 
ATOM     42 HH11 ARG A   5       7.259  -2.343  10.451  0.00  0.00    +0.255 HD
ATOM     43 HH12 ARG A   5       7.298  -1.056   9.192  0.00  0.00    +0.255 HD
ENDBRANCH  34  35
ENDBRANCH  33  34
ENDBRANCH  32  33
ENDBRANCH  29  32
ENDBRANCH  26  29
ENDBRANCH  23  25
ENDBRANCH  20  23
ENDBRANCH   1  19
BRANCH   1  44
ATOM     44  CB  TYR A   3       9.680   8.111   3.988  0.00  0.00    +0.055 C 
BRANCH  44  45
ATOM     45  CG  TYR A   3       9.771   7.243   5.223  0.00  0.00    -0.020 A 
ATOM     46  CD2 TYR A   3       8.846   7.363   6.252  0.00  0.00    -0.001 A 
ATOM     47  CE2 TYR A   3       8.942   6.585   7.390  0.00  0.00    +0.036 A 
ATOM     48  CZ  TYR A   3       9.972   5.674   7.513  0.00  0.00    +0.134 A 
ATOM     49  CE1 TYR A   3      10.904   5.541   6.510  0.00  0.00    +0.036 A 
ATOM     50  CD1 TYR A   3      10.805   6.331   5.375  0.00  0.00    -0.001 A 
BRANCH  48  51
ATOM     51  OH  TYR A   3      10.072   4.900   8.645  0.00  0.00    -0.506 OA
ATOM     52  HH  TYR A   3      10.861   4.307   8.569  0.00  0.00    +0.292 HD
ENDBRANCH  48  51
ENDBRANCH  44  45
ENDBRANCH   1  44
TORSDOF 19
REMARK  Name = ../refined-set-2016/4b3d/4b3d_pocket.pdb
REMARK  104 active torsions:
REMARK  status: ('A' for Active; 'I' for Inactive)
REMARK    1  A    between atoms: _1  and  _3
REMARK    2  A    between atoms: _3  and  _4
REMARK    3  A    between atoms: _3  and  _6
REMARK    4  A    between atoms: _9  and  _11
REMARK    5  A    between atoms: _11  and  _12
REMARK    6  A    between atoms: _11  and  _14
REMARK    7  A    between atoms: _14  and  _15
REMARK    8  A    between atoms: _15  and  _16
REMARK    9  A    between atoms: _18  and  _20
REMARK   10  A    between atoms: _20  and  _21
REMARK   11  A    between atoms: _20  and  _23
REMARK   12  A    between atoms: _23  and  _24
REMARK   13  A    between atoms: _34  and  _36
REMARK   14  A    between atoms: _36  and  _37
REMARK   15  A    between atoms: _36  and  _39
REMARK   16  A    between atoms: _39  and  _40
REMARK   17  A    between atoms: _43  and  _45
REMARK   18  A    between atoms: _45  and  _46
REMARK   19  A    between atoms: _45  and  _48
REMARK   20  A    between atoms: _48  and  _49
REMARK   21  A    between atoms: _52  and  _54
REMARK   22  A    between atoms: _54  and  _55
REMARK   23  A    between atoms: _54  and  _57
REMARK   24  A    between atoms: _57  and  _58
REMARK   25  A    between atoms: _61  and  _63
REMARK   26  A    between atoms: _63  and  _64
REMARK   27  A    between atoms: _67  and  _69
REMARK   28  A    between atoms: _69  and  _70
REMARK   29  A    between atoms: _69  and  _72
REMARK   30  A    between atoms: _72  and  _73
REMARK   31  A    between atoms: _78  and  _79
REMARK   32  A    between atoms: _81  and  _83
REMARK   33  A    between atoms: _83  and  _84
REMARK   34  A    between atoms: _87  and  _89
REMARK   35  A    between atoms: _89  and  _90
REMARK   36  A    between atoms: _89  and  _92
REMARK   37  A    between atoms: _92  and  _93
REMARK   38  A    between atoms: _93  and  _94
REMARK   39  A    between atoms: _94  and  _95
REMARK   40  A    between atoms: _104  and  _106
REMARK   41  A    between atoms: _106  and  _107
REMARK   42  A    between atoms: _106  and  _109
REMARK   43  A    between atoms: _109  and  _110
REMARK   44  A    between atoms: _115  and  _117
REMARK   45  A    between atoms: _117  and  _118
REMARK   46  A    between atoms: _117  and  _120
REMARK   47  A    between atoms: _120  and  _121
REMARK   48  A    between atoms: _121  and  _122
REMARK   49  A    between atoms: _127  and  _129
REMARK   50  A    between atoms: _129  and  _130
REMARK   51  A    between atoms: _129  and  _132
REMARK   52  A    between atoms: _132  and  _133
REMARK   53  A    between atoms: _136  and  _138
REMARK   54  A    between atoms: _138  and  _139
REMARK   55  A    between atoms: _138  and  _141
REMARK   56  A    between atoms: _141  and  _142
REMARK   57  A    between atoms: _145  and  _147
REMARK   58  A    between atoms: _147  and  _148
REMARK   59  A    between atoms: _147  and  _150
REMARK   60  A    between atoms: _153  and  _155
REMARK   61  A    between atoms: _155  and  _156
REMARK   62  A    between atoms: _155  and  _158
REMARK   63  A    between atoms: _158  and  _159
REMARK   64  A    between atoms: _159  and  _160
REMARK   65  A    between atoms: _165  and  _167
REMARK   66  A    between atoms: _167  and  _168
REMARK   67  A    between atoms: _167  and  _170
REMARK   68  A    between atoms: _170  and  _171
REMARK   69  A    between atoms: _171  and  _172
REMARK   70  A    between atoms: _177  and  _179
REMARK   71  A    between atoms: _179  and  _180
REMARK   72  A    between atoms: _183  and  _185
REMARK   73  A    between atoms: _185  and  _186
REMARK   74  A    between atoms: _185  and  _188
REMARK   75  A    between atoms: _188  and  _189
REMARK   76  A    between atoms: _189  and  _190
REMARK   77  A    between atoms: _193  and  _195
REMARK   78  A    between atoms: _195  and  _196
REMARK   79  A    between atoms: _195  and  _198
REMARK   80  A    between atoms: _198  and  _199
REMARK   81  A    between atoms: _202  and  _204
REMARK   82  A    between atoms: _204  and  _205
REMARK   83  A    between atoms: _204  and  _207
REMARK   84  A    between atoms: _207  and  _208
REMARK   85  A    between atoms: _208  and  _209
REMARK   86  A    between atoms: _211  and  _213
REMARK   87  A    between atoms: _213  and  _214
REMARK   88  A    between atoms: _213  and  _216
REMARK   89  A    between atoms: _216  and  _217
REMARK   90  A    between atoms: _220  and  _222
REMARK   91  A    between atoms: _222  and  _223
REMARK   92  A    between atoms: _222  and  _225
REMARK   93  A    between atoms: _225  and  _226
REMARK   94  A    between atoms: _229  and  _231
REMARK   95  A    between atoms: _231  and  _232
REMARK   96  A    between atoms: _231  and  _234
REMARK   97  A    between atoms: _234  and  _235
REMARK   98  A    between atoms: _238  and  _240
REMARK   99  A    between atoms: _240  and  _241
REMARK  100  A    between atoms: _240  and  _243
REMARK  101  A    between atoms: _246  and  _248
REMARK  102  A    between atoms: _248  and  _249
REMARK  103  A    between atoms: _248  and  _251
REMARK  104  A    between atoms: _251  and  _252
REMARK                            x       y       z     vdW  Elec       q    Type
REMARK                         _______ _______ _______ _____ _____    ______ ____
ROOT
ATOM      1  C   HIS A   1       3.316  -4.064   1.945  0.00  0.00    +0.239 C 
ATOM      2  N   GLN A   2       4.415  -4.650   2.407  0.00  0.00    -0.298 N 
ATOM      3  H   GLN A   2       4.345  -5.300   3.215  0.00  0.00    +0.150 HD
ATOM      4  O   HIS A   1       3.342  -3.223   1.046  0.00  0.00    -0.274 OA
ENDROOT
BRANCH   1   5
ATOM      5  CA  HIS A   1       1.988  -4.511   2.566  0.00  0.00    +0.151 C 
BRANCH   5   6
ATOM      6  N   HIS A   1       2.018  -5.951   2.798  0.00  0.00    -0.238 NA
ATOM      7  H   HIS A   1       2.033  -6.302   3.777  0.00  0.00    +0.142 HD
ENDBRANCH   5   6
BRANCH   5   8
ATOM      8  CB  HIS A   1       1.683  -3.811   3.896  0.00  0.00    +0.074 C 
BRANCH   8   9
ATOM      9  CG  HIS A   1       1.705  -2.314   3.840  0.00  0.00    +0.082 A 
ATOM     10  CD2 HIS A   1       2.298  -1.419   4.662  0.00  0.00    +0.115 A 
ATOM     11  NE2 HIS A   1       1.996  -0.165   4.182  0.00  0.00    -0.221 NA
ATOM     12  CE1 HIS A   1       1.241  -0.286   3.109  0.00  0.00    +0.199 A 
ATOM     13  ND1 HIS A   1       1.035  -1.576   2.886  0.00  0.00    -0.227 NA
ENDBRANCH   8   9
ENDBRANCH   5   8
ENDBRANCH   1   5
BRANCH   2  14
ATOM     14  CA  GLN A   2       5.724  -4.398   1.800  0.00  0.00    +0.137 C 
BRANCH  14  15
ATOM     15  C   GLN A   2       5.706  -4.714   0.303  0.00  0.00    +0.227 C 
ATOM     16  O   GLN A   2       6.233  -3.947  -0.518  0.00  0.00    -0.286 OA
ENDBRANCH  14  15
BRANCH  14  17
ATOM     17  CB  GLN A   2       6.782  -5.233   2.512  0.00  0.00    +0.037 C 
BRANCH  17  18
ATOM     18  CG  GLN A   2       8.238  -5.076   2.032  0.00  0.00    +0.087 C 
BRANCH  18  19
ATOM     19  CD  GLN A   2       9.145  -6.038   2.786  0.00  0.00    +0.219 C 
ATOM     20  OE1 GLN A   2       8.888  -6.340   3.956  0.00  0.00    -0.275 OA
ATOM     21  NE2 GLN A   2      10.201  -6.531   2.130  0.00  0.00    -0.329 N 
ATOM     22 HE21 GLN A   2      10.844  -7.196   2.605  0.00  0.00    +0.145 HD
ATOM     23 HE22 GLN A   2      10.379  -6.249   1.145  0.00  0.00    +0.145 HD
ENDBRANCH  18  19
ENDBRANCH  17  18
ENDBRANCH  14  17
ENDBRANCH   2  14
TORSDOF 9
REMARK  Name = ../refined-set-2016/4b3d/4b3d_pocket.pdb
REMARK  104 active torsions:
REMARK  status: ('A' for Active; 'I' for Inactive)
REMARK    1  A    between atoms: _1  and  _3
REMARK    2  A    between atoms: _3  and  _4
REMARK    3  A    between atoms: _3  and  _6
REMARK    4  A    between atoms: _9  and  _11
REMARK    5  A    between atoms: _11  and  _12
REMARK    6  A    between atoms: _11  and  _14
REMARK    7  A    between atoms: _14  and  _15
REMARK    8  A    between atoms: _15  and  _16
REMARK    9  A    between atoms: _18  and  _20
REMARK   10  A    between atoms: _20  and  _21
REMARK   11  A    between atoms: _20  and  _23
REMARK   12  A    between atoms: _23  and  _24
REMARK   13  A    between atoms: _34  and  _36
REMARK   14  A    between atoms: _36  and  _37
REMARK   15  A    between atoms: _36  and  _39
REMARK   16  A    between atoms: _39  and  _40
REMARK   17  A    between atoms: _43  and  _45
REMARK   18  A    between atoms: _45  and  _46
REMARK   19  A    between atoms: _45  and  _48
REMARK   20  A    between atoms: _48  and  _49
REMARK   21  A    between atoms: _52  and  _54
REMARK   22  A    between atoms: _54  and  _55
REMARK   23  A    between atoms: _54  and  _57
REMARK   24  A    between atoms: _57  and  _58
REMARK   25  A    between atoms: _61  and  _63
REMARK   26  A    between atoms: _63  and  _64
REMARK   27  A    between atoms: _67  and  _69
REMARK   28  A    between atoms: _69  and  _70
REMARK   29  A    between atoms: _69  and  _72
REMARK   30  A    between atoms: _72  and  _73
REMARK   31  A    between atoms: _78  and  _79
REMARK   32  A    between atoms: _81  and  _83
REMARK   33  A    between atoms: _83  and  _84
REMARK   34  A    between atoms: _87  and  _89
REMARK   35  A    between atoms: _89  and  _90
REMARK   36  A    between atoms: _89  and  _92
REMARK   37  A    between atoms: _92  and  _93
REMARK   38  A    between atoms: _93  and  _94
REMARK   39  A    between atoms: _94  and  _95
REMARK   40  A    between atoms: _104  and  _106
REMARK   41  A    between atoms: _106  and  _107
REMARK   42  A    between atoms: _106  and  _109
REMARK   43  A    between atoms: _109  and  _110
REMARK   44  A    between atoms: _115  and  _117
REMARK   45  A    between atoms: _117  and  _118
REMARK   46  A    between atoms: _117  and  _120
REMARK   47  A    between atoms: _120  and  _121
REMARK   48  A    between atoms: _121  and  _122
REMARK   49  A    between atoms: _127  and  _129
REMARK   50  A    between atoms: _129  and  _130
REMARK   51  A    between atoms: _129  and  _132
REMARK   52  A    between atoms: _132  and  _133
REMARK   53  A    between atoms: _136  and  _138
REMARK   54  A    between atoms: _138  and  _139
REMARK   55  A    between atoms: _138  and  _141
REMARK   56  A    between atoms: _141  and  _142
REMARK   57  A    between atoms: _145  and  _147
REMARK   58  A    between atoms: _147  and  _148
REMARK   59  A    between atoms: _147  and  _150
REMARK   60  A    between atoms: _153  and  _155
REMARK   61  A    between atoms: _155  and  _156
REMARK   62  A    between atoms: _155  and  _158
REMARK   63  A    between atoms: _158  and  _159
REMARK   64  A    between atoms: _159  and  _160
REMARK   65  A    between atoms: _165  and  _167
REMARK   66  A    between atoms: _167  and  _168
REMARK   67  A    between atoms: _167  and  _170
REMARK   68  A    between atoms: _170  and  _171
REMARK   69  A    between atoms: _171  and  _172
REMARK   70  A    between atoms: _177  and  _179
REMARK   71  A    between atoms: _179  and  _180
REMARK   72  A    between atoms: _183  and  _185
REMARK   73  A    between atoms: _185  and  _186
REMARK   74  A    between atoms: _185  and  _188
REMARK   75  A    between atoms: _188  and  _189
REMARK   76  A    between atoms: _189  and  _190
REMARK   77  A    between atoms: _193  and  _195
REMARK   78  A    between atoms: _195  and  _196
REMARK   79  A    between atoms: _195  and  _198
REMARK   80  A    between atoms: _198  and  _199
REMARK   81  A    between atoms: _202  and  _204
REMARK   82  A    between atoms: _204  and  _205
REMARK   83  A    between atoms: _204  and  _207
REMARK   84  A    between atoms: _207  and  _208
REMARK   85  A    between atoms: _208  and  _209
REMARK   86  A    between atoms: _211  and  _213
REMARK   87  A    between atoms: _213  and  _214
REMARK   88  A    between atoms: _213  and  _216
REMARK   89  A    between atoms: _216  and  _217
REMARK   90  A    between atoms: _220  and  _222
REMARK   91  A    between atoms: _222  and  _223
REMARK   92  A    between atoms: _222  and  _225
REMARK   93  A    between atoms: _225  and  _226
REMARK   94  A    between atoms: _229  and  _231
REMARK   95  A    between atoms: _231  and  _232
REMARK   96  A    between atoms: _231  and  _234
REMARK   97  A    between atoms: _234  and  _235
REMARK   98  A    between atoms: _238  and  _240
REMARK   99  A    between atoms: _240  and  _241
REMARK  100  A    between atoms: _240  and  _243
REMARK  101  A    between atoms: _246  and  _248
REMARK  102  A    between atoms: _248  and  _249
REMARK  103  A    between atoms: _248  and  _251
REMARK  104  A    between atoms: _251  and  _252
REMARK                            x       y       z     vdW  Elec       q    Type
REMARK                         _______ _______ _______ _____ _____    ______ ____
ROOT
ATOM      1  CA  GLN A   5       2.748   1.581  -5.482  0.00  0.00    +0.149 C 
ENDROOT
BRANCH   1   2
ATOM      2  C   GLN A   5       3.877   2.509  -5.909  0.00  0.00    +0.241 C 
ATOM      3  N   ALA A   6       5.111   2.106  -5.630  0.00  0.00    -0.297 N 
ATOM      4  H   ALA A   6       5.260   1.177  -5.186  0.00  0.00    +0.150 HD
ATOM      5  O   GLN A   5       3.637   3.587  -6.453  0.00  0.00    -0.273 OA
BRANCH   3   6
ATOM      6  CA  ALA A   6       6.264   2.951  -5.939  0.00  0.00    +0.149 C 
ATOM      7  CB  ALA A   6       7.564   2.279  -5.468  0.00  0.00    +0.031 C 
BRANCH   6   8
ATOM      8  C   ALA A   6       6.337   3.280  -7.426  0.00  0.00    +0.241 C 
ATOM      9  O   ALA A   6       6.801   4.360  -7.814  0.00  0.00    -0.273 OA
ATOM     10  N   GLU A   7       5.884   2.354  -8.259  0.00  0.00    -0.297 N 
ATOM     11  H   GLU A   7       5.448   1.489  -7.881  0.00  0.00    +0.150 HD
BRANCH  10  12
ATOM     12  CA  GLU A   7       5.993   2.539  -9.705  0.00  0.00    +0.149 C 
BRANCH  12  13
ATOM     13  C   GLU A   7       5.250   3.783 -10.172  0.00  0.00    +0.241 C 
ATOM     14  N   ASP A   8       4.159   4.119  -9.496  0.00  0.00    -0.297 N 
ATOM     15  H   ASP A   8       3.832   3.523  -8.709  0.00  0.00    +0.150 HD
ATOM     16  O   GLU A   7       5.641   4.413 -11.148  0.00  0.00    -0.273 OA
BRANCH  14  17
ATOM     17  CA  ASP A   8       3.415   5.325  -9.854  0.00  0.00    +0.160 C 
BRANCH  17  18
ATOM     18  C   ASP A   8       4.275   6.590  -9.749  0.00  0.00    +0.241 C 
ATOM     19  N   MET A   9       4.940   6.768  -8.612  0.00  0.00    -0.297 N 
ATOM     20  H   MET A   9       4.830   6.072  -7.847  0.00  0.00    +0.150 HD
ATOM     21  O   ASP A   8       4.340   7.376 -10.694  0.00  0.00    -0.273 OA
BRANCH  19  22
ATOM     22  CA  MET A   9       5.820   7.913  -8.409  0.00  0.00    +0.149 C 
BRANCH  22  23
ATOM     23  C   MET A   9       7.025   7.853  -9.343  0.00  0.00    +0.241 C 
ATOM     24  N   ILE A  10       7.574   6.656  -9.534  0.00  0.00    -0.298 N 
ATOM     25  H   ILE A  10       7.202   5.833  -9.019  0.00  0.00    +0.150 HD
ATOM     26  O   MET A   9       7.453   8.870  -9.883  0.00  0.00    -0.273 OA
BRANCH  24  27
ATOM     27  CA  ILE A  10       8.693   6.484 -10.459  0.00  0.00    +0.137 C 
BRANCH  27  28
ATOM     28  C   ILE A  10       8.315   6.984 -11.857  0.00  0.00    +0.227 C 
ATOM     29  O   ILE A  10       9.073   7.720 -12.490  0.00  0.00    -0.286 OA
ENDBRANCH  27  28
BRANCH  27  30
ATOM     30  CB  ILE A  10       9.146   5.016 -10.531  0.00  0.00    +0.026 C 
ATOM     31  CG2 ILE A  10      10.070   4.803 -11.743  0.00  0.00    +0.002 C 
BRANCH  30  32
ATOM     32  CG1 ILE A  10       9.857   4.646  -9.230  0.00  0.00    +0.002 C 
ATOM     33  CD1 ILE A  10      10.009   3.142  -9.005  0.00  0.00    +0.000 C 
ENDBRANCH  30  32
ENDBRANCH  27  30
ENDBRANCH  24  27
ENDBRANCH  22  23
BRANCH  22  34
ATOM     34  CB  MET A   9       6.286   7.985  -6.956  0.00  0.00    +0.041 C 
BRANCH  34  35
ATOM     35  CG  MET A   9       7.075   9.240  -6.629  0.00  0.00    +0.060 C 
BRANCH  35  36
ATOM     36  SD  MET A   9       7.578   9.310  -4.899  0.00  0.00    -0.139 S 
ATOM     37  CE  MET A   9       8.205  10.981  -4.791  0.00  0.00    +0.069 C 
ENDBRANCH  35  36
ENDBRANCH  34  35
ENDBRANCH  22  34
ENDBRANCH  19  22
ENDBRANCH  17  18
BRANCH  17  38
ATOM     38  CB  ASP A   8       2.145   5.440  -9.013  0.00  0.00    +0.143 C 
BRANCH  38  39
ATOM     39  CG  ASP A   8       1.140   4.345  -9.330  0.00  0.00    +0.367 C 
ATOM     40  OD2 ASP A   8       0.339   3.999  -8.439  0.00  0.00    -0.246 OA
ATOM     41  OD1 ASP A   8       1.142   3.842 -10.477  0.00  0.00    -0.246 OA
ENDBRANCH  38  39
ENDBRANCH  17  38
ENDBRANCH  14  17
ENDBRANCH  12  13
BRANCH  12  42
ATOM     42  CB  GLU A   7       5.480   1.318 -10.463  0.00  0.00    +0.041 C 
BRANCH  42  43
ATOM     43  CG  GLU A   7       5.690   1.447 -11.968  0.00  0.00    +0.116 C 
BRANCH  43  44
ATOM     44  CD  GLU A   7       5.412   0.167 -12.707  0.00  0.00    +0.365 C 
ATOM     45  OE2 GLU A   7       5.001  -0.827 -12.062  0.00  0.00    -0.246 OA
ATOM     46  OE1 GLU A   7       5.633   0.132 -13.934  0.00  0.00    -0.246 OA
ENDBRANCH  43  44
ENDBRANCH  42  43
ENDBRANCH  12  42
ENDBRANCH  10  12
ENDBRANCH   6   8
ENDBRANCH   3   6
ENDBRANCH   1   2
BRANCH   1  48
ATOM     47  C   GLN A   4       3.360  -0.362  -6.814  0.00  0.00    +0.241 C 
ATOM     48  N   GLN A   5       3.096   0.173  -5.629  0.00  0.00    -0.297 N 
ATOM     49  H   GLN A   5       3.138  -0.429  -4.782  0.00  0.00    +0.150 HD
ATOM     50  O   GLN A   4       3.270   0.282  -7.859  0.00  0.00    -0.273 OA
BRANCH  47  51
ATOM     51  CA  GLN A   4       3.814  -1.825  -6.827  0.00  0.00    +0.149 C 
BRANCH  51  53
ATOM     52  C   VAL A   3       5.907  -1.570  -5.651  0.00  0.00    +0.241 C 
ATOM     53  N   GLN A   4       4.701  -2.118  -5.711  0.00  0.00    -0.297 N 
ATOM     54  H   GLN A   4       4.387  -2.761  -4.956  0.00  0.00    +0.150 HD
ATOM     55  O   VAL A   3       6.344  -0.856  -6.563  0.00  0.00    -0.273 OA
BRANCH  52  56
ATOM     56  CA  VAL A   3       6.728  -1.844  -4.378  0.00  0.00    +0.149 C 
BRANCH  56  58
ATOM     57  C   LEU A   2       5.287  -0.672  -2.829  0.00  0.00    +0.241 C 
ATOM     58  N   VAL A   3       5.881  -1.806  -3.177  0.00  0.00    -0.297 N 
ATOM     59  H   VAL A   3       5.748  -2.663  -2.603  0.00  0.00    +0.150 HD
ATOM     60  O   LEU A   2       5.487   0.382  -3.421  0.00  0.00    -0.273 OA
BRANCH  57  61
ATOM     61  CA  LEU A   2       4.354  -0.719  -1.613  0.00  0.00    +0.149 C 
BRANCH  61  63
ATOM     62  C   LEU A   1       2.875  -2.454  -2.511  0.00  0.00    +0.238 C 
ATOM     63  N   LEU A   2       3.661  -2.008  -1.528  0.00  0.00    -0.297 N 
ATOM     64  H   LEU A   2       3.785  -2.592  -0.677  0.00  0.00    +0.150 HD
ATOM     65  O   LEU A   1       2.687  -1.823  -3.553  0.00  0.00    -0.274 OA
BRANCH  62  66
ATOM     66  CA  LEU A   1       2.187  -3.807  -2.297  0.00  0.00    +0.145 C 
BRANCH  66  67
ATOM     67  N   LEU A   1       3.059  -4.769  -1.638  0.00  0.00    -0.238 NA
ATOM     68  H   LEU A   1       2.830  -5.104  -0.680  0.00  0.00    +0.142 HD
ENDBRANCH  66  67
BRANCH  66  69
ATOM     69  CB  LEU A   1       0.875  -3.625  -1.524  0.00  0.00    +0.026 C 
BRANCH  69  70
ATOM     70  CG  LEU A   1      -0.107  -2.632  -2.170  0.00  0.00    +0.002 C 
ATOM     71  CD2 LEU A   1      -1.294  -2.326  -1.257  0.00  0.00    +0.000 C 
ATOM     72  CD1 LEU A   1      -0.590  -3.162  -3.514  0.00  0.00    +0.000 C 
ENDBRANCH  69  70
ENDBRANCH  66  69
ENDBRANCH  62  66
ENDBRANCH  61  63
BRANCH  61  73
ATOM     73  CB  LEU A   2       5.145  -0.424  -0.333  0.00  0.00    +0.029 C 
BRANCH  73  74
ATOM     74  CG  LEU A   2       4.314   0.045   0.867  0.00  0.00    +0.002 C 
ATOM     75  CD2 LEU A   2       5.095  -0.028   2.150  0.00  0.00    +0.000 C 
ATOM     76  CD1 LEU A   2       3.822   1.471   0.657  0.00  0.00    +0.000 C 
ENDBRANCH  73  74
ENDBRANCH  61  73
ENDBRANCH  57  61
ENDBRANCH  56  58
BRANCH  56  77
ATOM     77  CB  VAL A   3       7.523  -3.180  -4.451  0.00  0.00    +0.027 C 
ATOM     78  CG2 VAL A   3       8.511  -3.247  -3.313  0.00  0.00    +0.002 C 
ATOM     79  CG1 VAL A   3       8.242  -3.317  -5.794  0.00  0.00    +0.002 C 
ENDBRANCH  56  77
ENDBRANCH  52  56
ENDBRANCH  51  53
BRANCH  51  80
ATOM     80  CB  GLN A   4       2.641  -2.813  -6.837  0.00  0.00    +0.039 C 
BRANCH  80  81
ATOM     81  CG  GLN A   4       3.090  -4.214  -7.237  0.00  0.00    +0.087 C 
BRANCH  81  82
ATOM     82  CD  GLN A   4       2.097  -5.297  -6.872  0.00  0.00    +0.219 C 
ATOM     83  OE1 GLN A   4       2.042  -5.747  -5.725  0.00  0.00    -0.275 OA
ATOM     84  NE2 GLN A   4       1.319  -5.737  -7.853  0.00  0.00    -0.329 N 
ATOM     85 HE21 GLN A   4       0.627  -6.492  -7.669  0.00  0.00    +0.145 HD
ATOM     86 HE22 GLN A   4       1.401  -5.327  -8.805  0.00  0.00    +0.145 HD
ENDBRANCH  81  82
ENDBRANCH  80  81
ENDBRANCH  51  80
ENDBRANCH  47  51
ENDBRANCH   1  48
BRANCH   1  87
ATOM     87  CB  GLN A   5       2.419   1.888  -4.027  0.00  0.00    +0.039 C 
BRANCH  87  88
ATOM     88  CG  GLN A   5       0.960   2.035  -3.718  0.00  0.00    +0.087 C 
BRANCH  88  89
ATOM     89  CD  GLN A   5       0.745   2.241  -2.244  0.00  0.00    +0.219 C 
ATOM     90  OE1 GLN A   5       1.064   1.369  -1.439  0.00  0.00    -0.275 OA
ATOM     91  NE2 GLN A   5       0.239   3.402  -1.878  0.00  0.00    -0.329 N 
ATOM     92 HE21 GLN A   5       0.094   3.612  -0.870  0.00  0.00    +0.145 HD
ATOM     93 HE22 GLN A   5      -0.016   4.108  -2.598  0.00  0.00    +0.145 HD
ENDBRANCH  88  89
ENDBRANCH  87  88
ENDBRANCH   1  87
TORSDOF 41
REMARK  Name = ../refined-set-2016/4b3d/4b3d_pocket.pdb
REMARK  104 active torsions:
REMARK  status: ('A' for Active; 'I' for Inactive)
REMARK    1  A    between atoms: _1  and  _3
REMARK    2  A    between atoms: _3  and  _4
REMARK    3  A    between atoms: _3  and  _6
REMARK    4  A    between atoms: _9  and  _11
REMARK    5  A    between atoms: _11  and  _12
REMARK    6  A    between atoms: _11  and  _14
REMARK    7  A    between atoms: _14  and  _15
REMARK    8  A    between atoms: _15  and  _16
REMARK    9  A    between atoms: _18  and  _20
REMARK   10  A    between atoms: _20  and  _21
REMARK   11  A    between atoms: _20  and  _23
REMARK   12  A    between atoms: _23  and  _24
REMARK   13  A    between atoms: _34  and  _36
REMARK   14  A    between atoms: _36  and  _37
REMARK   15  A    between atoms: _36  and  _39
REMARK   16  A    between atoms: _39  and  _40
REMARK   17  A    between atoms: _43  and  _45
REMARK   18  A    between atoms: _45  and  _46
REMARK   19  A    between atoms: _45  and  _48
REMARK   20  A    between atoms: _48  and  _49
REMARK   21  A    between atoms: _52  and  _54
REMARK   22  A    between atoms: _54  and  _55
REMARK   23  A    between atoms: _54  and  _57
REMARK   24  A    between atoms: _57  and  _58
REMARK   25  A    between atoms: _61  and  _63
REMARK   26  A    between atoms: _63  and  _64
REMARK   27  A    between atoms: _67  and  _69
REMARK   28  A    between atoms: _69  and  _70
REMARK   29  A    between atoms: _69  and  _72
REMARK   30  A    between atoms: _72  and  _73
REMARK   31  A    between atoms: _78  and  _79
REMARK   32  A    between atoms: _81  and  _83
REMARK   33  A    between atoms: _83  and  _84
REMARK   34  A    between atoms: _87  and  _89
REMARK   35  A    between atoms: _89  and  _90
REMARK   36  A    between atoms: _89  and  _92
REMARK   37  A    between atoms: _92  and  _93
REMARK   38  A    between atoms: _93  and  _94
REMARK   39  A    between atoms: _94  and  _95
REMARK   40  A    between atoms: _104  and  _106
REMARK   41  A    between atoms: _106  and  _107
REMARK   42  A    between atoms: _106  and  _109
REMARK   43  A    between atoms: _109  and  _110
REMARK   44  A    between atoms: _115  and  _117
REMARK   45  A    between atoms: _117  and  _118
REMARK   46  A    between atoms: _117  and  _120
REMARK   47  A    between atoms: _120  and  _121
REMARK   48  A    between atoms: _121  and  _122
REMARK   49  A    between atoms: _127  and  _129
REMARK   50  A    between atoms: _129  and  _130
REMARK   51  A    between atoms: _129  and  _132
REMARK   52  A    between atoms: _132  and  _133
REMARK   53  A    between atoms: _136  and  _138
REMARK   54  A    between atoms: _138  and  _139
REMARK   55  A    between atoms: _138  and  _141
REMARK   56  A    between atoms: _141  and  _142
REMARK   57  A    between atoms: _145  and  _147
REMARK   58  A    between atoms: _147  and  _148
REMARK   59  A    between atoms: _147  and  _150
REMARK   60  A    between atoms: _153  and  _155
REMARK   61  A    between atoms: _155  and  _156
REMARK   62  A    between atoms: _155  and  _158
REMARK   63  A    between atoms: _158  and  _159
REMARK   64  A    between atoms: _159  and  _160
REMARK   65  A    between atoms: _165  and  _167
REMARK   66  A    between atoms: _167  and  _168
REMARK   67  A    between atoms: _167  and  _170
REMARK   68  A    between atoms: _170  and  _171
REMARK   69  A    between atoms: _171  and  _172
REMARK   70  A    between atoms: _177  and  _179
REMARK   71  A    between atoms: _179  and  _180
REMARK   72  A    between atoms: _183  and  _185
REMARK   73  A    between atoms: _185  and  _186
REMARK   74  A    between atoms: _185  and  _188
REMARK   75  A    between atoms: _188  and  _189
REMARK   76  A    between atoms: _189  and  _190
REMARK   77  A    between atoms: _193  and  _195
REMARK   78  A    between atoms: _195  and  _196
REMARK   79  A    between atoms: _195  and  _198
REMARK   80  A    between atoms: _198  and  _199
REMARK   81  A    between atoms: _202  and  _204
REMARK   82  A    between atoms: _204  and  _205
REMARK   83  A    between atoms: _204  and  _207
REMARK   84  A    between atoms: _207  and  _208
REMARK   85  A    between atoms: _208  and  _209
REMARK   86  A    between atoms: _211  and  _213
REMARK   87  A    between atoms: _213  and  _214
REMARK   88  A    between atoms: _213  and  _216
REMARK   89  A    between atoms: _216  and  _217
REMARK   90  A    between atoms: _220  and  _222
REMARK   91  A    between atoms: _222  and  _223
REMARK   92  A    between atoms: _222  and  _225
REMARK   93  A    between atoms: _225  and  _226
REMARK   94  A    between atoms: _229  and  _231
REMARK   95  A    between atoms: _231  and  _232
REMARK   96  A    between atoms: _231  and  _234
REMARK   97  A    between atoms: _234  and  _235
REMARK   98  A    between atoms: _238  and  _240
REMARK   99  A    between atoms: _240  and  _241
REMARK  100  A    between atoms: _240  and  _243
REMARK  101  A    between atoms: _246  and  _248
REMARK  102  A    between atoms: _248  and  _249
REMARK  103  A    between atoms: _248  and  _251
REMARK  104  A    between atoms: _251  and  _252
REMARK                            x       y       z     vdW  Elec       q    Type
REMARK                         _______ _______ _______ _____ _____    ______ ____
ROOT
ATOM      1  CA  ILE A   2      15.786   1.230  -0.504  0.00  0.00    +0.148 C 
ENDROOT
BRANCH   1   3
ATOM      2  C   LEU A   1      15.509   1.612  -2.908  0.00  0.00    +0.238 C 
ATOM      3  N   ILE A   2      15.252   1.960  -1.650  0.00  0.00    -0.297 N 
ATOM      4  H   ILE A   2      14.645   2.787  -1.476  0.00  0.00    +0.150 HD
ATOM      5  O   LEU A   1      16.225   0.660  -3.215  0.00  0.00    -0.274 OA
BRANCH   2   6
ATOM      6  CA  LEU A   1      14.871   2.471  -3.987  0.00  0.00    +0.145 C 
BRANCH   6   7
ATOM      7  N   LEU A   1      15.969   3.021  -4.769  0.00  0.00    -0.238 NA
ATOM      8  H   LEU A   1      16.621   2.367  -5.247  0.00  0.00    +0.142 HD
ENDBRANCH   6   7
BRANCH   6   9
ATOM      9  CB  LEU A   1      13.968   1.606  -4.879  0.00  0.00    +0.026 C 
BRANCH   9  10
ATOM     10  CG  LEU A   1      12.845   0.786  -4.242  0.00  0.00    +0.002 C 
ATOM     11  CD2 LEU A   1      11.969   1.652  -3.366  0.00  0.00    +0.000 C 
ATOM     12  CD1 LEU A   1      12.026   0.089  -5.325  0.00  0.00    +0.000 C 
ENDBRANCH   9  10
ENDBRANCH   6   9
ENDBRANCH   2   6
ENDBRANCH   1   3
BRANCH   1  13
ATOM     13  C   ILE A   2      14.690   0.374   0.114  0.00  0.00    +0.241 C 
ATOM     14  N   VAL A   3      15.026  -0.881   0.427  0.00  0.00    -0.298 N 
ATOM     15  H   VAL A   3      15.927  -1.266   0.079  0.00  0.00    +0.150 HD
ATOM     16  O   ILE A   2      13.548   0.818   0.240  0.00  0.00    -0.273 OA
BRANCH  14  17
ATOM     17  CA  VAL A   3      14.160  -1.726   1.245  0.00  0.00    +0.137 C 
BRANCH  17  18
ATOM     18  CB  VAL A   3      13.625  -2.954   0.489  0.00  0.00    +0.026 C 
ATOM     19  CG2 VAL A   3      12.527  -3.617   1.314  0.00  0.00    +0.002 C 
ATOM     20  CG1 VAL A   3      13.066  -2.538  -0.864  0.00  0.00    +0.002 C 
ENDBRANCH  17  18
BRANCH  17  21
ATOM     21  C   VAL A   3      14.984  -2.196   2.436  0.00  0.00    +0.227 C 
ATOM     22  O   VAL A   3      15.914  -2.996   2.288  0.00  0.00    -0.286 OA
ENDBRANCH  17  21
ENDBRANCH  14  17
ENDBRANCH   1  13
BRANCH   1  23
ATOM     23  CB  ILE A   2      16.319   2.224   0.549  0.00  0.00    +0.027 C 
ATOM     24  CG2 ILE A   2      16.479   1.547   1.916  0.00  0.00    +0.002 C 
BRANCH  23  25
ATOM     25  CG1 ILE A   2      17.637   2.832   0.062  0.00  0.00    +0.002 C 
ATOM     26  CD1 ILE A   2      17.929   4.208   0.672  0.00  0.00    +0.000 C 
ENDBRANCH  23  25
ENDBRANCH   1  23
TORSDOF 11
REMARK  Name = ../refined-set-2016/4b3d/4b3d_pocket.pdb
REMARK  104 active torsions:
REMARK  status: ('A' for Active; 'I' for Inactive)
REMARK    1  A    between atoms: _1  and  _3
REMARK    2  A    between atoms: _3  and  _4
REMARK    3  A    between atoms: _3  and  _6
REMARK    4  A    between atoms: _9  and  _11
REMARK    5  A    between atoms: _11  and  _12
REMARK    6  A    between atoms: _11  and  _14
REMARK    7  A    between atoms: _14  and  _15
REMARK    8  A    between atoms: _15  and  _16
REMARK    9  A    between atoms: _18  and  _20
REMARK   10  A    between atoms: _20  and  _21
REMARK   11  A    between atoms: _20  and  _23
REMARK   12  A    between atoms: _23  and  _24
REMARK   13  A    between atoms: _34  and  _36
REMARK   14  A    between atoms: _36  and  _37
REMARK   15  A    between atoms: _36  and  _39
REMARK   16  A    between atoms: _39  and  _40
REMARK   17  A    between atoms: _43  and  _45
REMARK   18  A    between atoms: _45  and  _46
REMARK   19  A    between atoms: _45  and  _48
REMARK   20  A    between atoms: _48  and  _49
REMARK   21  A    between atoms: _52  and  _54
REMARK   22  A    between atoms: _54  and  _55
REMARK   23  A    between atoms: _54  and  _57
REMARK   24  A    between atoms: _57  and  _58
REMARK   25  A    between atoms: _61  and  _63
REMARK   26  A    between atoms: _63  and  _64
REMARK   27  A    between atoms: _67  and  _69
REMARK   28  A    between atoms: _69  and  _70
REMARK   29  A    between atoms: _69  and  _72
REMARK   30  A    between atoms: _72  and  _73
REMARK   31  A    between atoms: _78  and  _79
REMARK   32  A    between atoms: _81  and  _83
REMARK   33  A    between atoms: _83  and  _84
REMARK   34  A    between atoms: _87  and  _89
REMARK   35  A    between atoms: _89  and  _90
REMARK   36  A    between atoms: _89  and  _92
REMARK   37  A    between atoms: _92  and  _93
REMARK   38  A    between atoms: _93  and  _94
REMARK   39  A    between atoms: _94  and  _95
REMARK   40  A    between atoms: _104  and  _106
REMARK   41  A    between atoms: _106  and  _107
REMARK   42  A    between atoms: _106  and  _109
REMARK   43  A    between atoms: _109  and  _110
REMARK   44  A    between atoms: _115  and  _117
REMARK   45  A    between atoms: _117  and  _118
REMARK   46  A    between atoms: _117  and  _120
REMARK   47  A    between atoms: _120  and  _121
REMARK   48  A    between atoms: _121  and  _122
REMARK   49  A    between atoms: _127  and  _129
REMARK   50  A    between atoms: _129  and  _130
REMARK   51  A    between atoms: _129  and  _132
REMARK   52  A    between atoms: _132  and  _133
REMARK   53  A    between atoms: _136  and  _138
REMARK   54  A    between atoms: _138  and  _139
REMARK   55  A    between atoms: _138  and  _141
REMARK   56  A    between atoms: _141  and  _142
REMARK   57  A    between atoms: _145  and  _147
REMARK   58  A    between atoms: _147  and  _148
REMARK   59  A    between atoms: _147  and  _150
REMARK   60  A    between atoms: _153  and  _155
REMARK   61  A    between atoms: _155  and  _156
REMARK   62  A    between atoms: _155  and  _158
REMARK   63  A    between atoms: _158  and  _159
REMARK   64  A    between atoms: _159  and  _160
REMARK   65  A    between atoms: _165  and  _167
REMARK   66  A    between atoms: _167  and  _168
REMARK   67  A    between atoms: _167  and  _170
REMARK   68  A    between atoms: _170  and  _171
REMARK   69  A    between atoms: _171  and  _172
REMARK   70  A    between atoms: _177  and  _179
REMARK   71  A    between atoms: _179  and  _180
REMARK   72  A    between atoms: _183  and  _185
REMARK   73  A    between atoms: _185  and  _186
REMARK   74  A    between atoms: _185  and  _188
REMARK   75  A    between atoms: _188  and  _189
REMARK   76  A    between atoms: _189  and  _190
REMARK   77  A    between atoms: _193  and  _195
REMARK   78  A    between atoms: _195  and  _196
REMARK   79  A    between atoms: _195  and  _198
REMARK   80  A    between atoms: _198  and  _199
REMARK   81  A    between atoms: _202  and  _204
REMARK   82  A    between atoms: _204  and  _205
REMARK   83  A    between atoms: _204  and  _207
REMARK   84  A    between atoms: _207  and  _208
REMARK   85  A    between atoms: _208  and  _209
REMARK   86  A    between atoms: _211  and  _213
REMARK   87  A    between atoms: _213  and  _214
REMARK   88  A    between atoms: _213  and  _216
REMARK   89  A    between atoms: _216  and  _217
REMARK   90  A    between atoms: _220  and  _222
REMARK   91  A    between atoms: _222  and  _223
REMARK   92  A    between atoms: _222  and  _225
REMARK   93  A    between atoms: _225  and  _226
REMARK   94  A    between atoms: _229  and  _231
REMARK   95  A    between atoms: _231  and  _232
REMARK   96  A    between atoms: _231  and  _234
REMARK   97  A    between atoms: _234  and  _235
REMARK   98  A    between atoms: _238  and  _240
REMARK   99  A    between atoms: _240  and  _241
REMARK  100  A    between atoms: _240  and  _243
REMARK  101  A    between atoms: _246  and  _248
REMARK  102  A    between atoms: _248  and  _249
REMARK  103  A    between atoms: _248  and  _251
REMARK  104  A    between atoms: _251  and  _252
REMARK                            x       y       z     vdW  Elec       q    Type
REMARK                         _______ _______ _______ _____ _____    ______ ____
ROOT
ATOM      1  CA  LEU A   1      11.693  -1.562 -11.405  0.00  0.00    +0.133 C 
ENDROOT
BRANCH   1   2
ATOM      2  N   LEU A   1      11.569  -3.022 -11.576  0.00  0.00    -0.239 NA
ATOM      3  H   LEU A   1      11.302  -3.616 -10.765  0.00  0.00    +0.142 HD
ENDBRANCH   1   2
BRANCH   1   4
ATOM      4  C   LEU A   1      13.115  -1.106 -11.691  0.00  0.00    +0.224 C 
ATOM      5  O   LEU A   1      13.329  -0.088 -12.365  0.00  0.00    -0.287 OA
ENDBRANCH   1   4
BRANCH   1   6
ATOM      6  CB  LEU A   1      11.307  -1.136  -9.991  0.00  0.00    +0.025 C 
BRANCH   6   7
ATOM      7  CG  LEU A   1       9.832  -1.305  -9.623  0.00  0.00    +0.002 C 
ATOM      8  CD2 LEU A   1       9.591  -0.666  -8.283  0.00  0.00    +0.000 C 
ATOM      9  CD1 LEU A   1       8.924  -0.706 -10.694  0.00  0.00    +0.000 C 
ENDBRANCH   6   7
ENDBRANCH   1   6
TORSDOF 4
REMARK  Name = ../refined-set-2016/4b3d/4b3d_pocket.pdb
REMARK  104 active torsions:
REMARK  status: ('A' for Active; 'I' for Inactive)
REMARK    1  A    between atoms: _1  and  _3
REMARK    2  A    between atoms: _3  and  _4
REMARK    3  A    between atoms: _3  and  _6
REMARK    4  A    between atoms: _9  and  _11
REMARK    5  A    between atoms: _11  and  _12
REMARK    6  A    between atoms: _11  and  _14
REMARK    7  A    between atoms: _14  and  _15
REMARK    8  A    between atoms: _15  and  _16
REMARK    9  A    between atoms: _18  and  _20
REMARK   10  A    between atoms: _20  and  _21
REMARK   11  A    between atoms: _20  and  _23
REMARK   12  A    between atoms: _23  and  _24
REMARK   13  A    between atoms: _34  and  _36
REMARK   14  A    between atoms: _36  and  _37
REMARK   15  A    between atoms: _36  and  _39
REMARK   16  A    between atoms: _39  and  _40
REMARK   17  A    between atoms: _43  and  _45
REMARK   18  A    between atoms: _45  and  _46
REMARK   19  A    between atoms: _45  and  _48
REMARK   20  A    between atoms: _48  and  _49
REMARK   21  A    between atoms: _52  and  _54
REMARK   22  A    between atoms: _54  and  _55
REMARK   23  A    between atoms: _54  and  _57
REMARK   24  A    between atoms: _57  and  _58
REMARK   25  A    between atoms: _61  and  _63
REMARK   26  A    between atoms: _63  and  _64
REMARK   27  A    between atoms: _67  and  _69
REMARK   28  A    between atoms: _69  and  _70
REMARK   29  A    between atoms: _69  and  _72
REMARK   30  A    between atoms: _72  and  _73
REMARK   31  A    between atoms: _78  and  _79
REMARK   32  A    between atoms: _81  and  _83
REMARK   33  A    between atoms: _83  and  _84
REMARK   34  A    between atoms: _87  and  _89
REMARK   35  A    between atoms: _89  and  _90
REMARK   36  A    between atoms: _89  and  _92
REMARK   37  A    between atoms: _92  and  _93
REMARK   38  A    between atoms: _93  and  _94
REMARK   39  A    between atoms: _94  and  _95
REMARK   40  A    between atoms: _104  and  _106
REMARK   41  A    between atoms: _106  and  _107
REMARK   42  A    between atoms: _106  and  _109
REMARK   43  A    between atoms: _109  and  _110
REMARK   44  A    between atoms: _115  and  _117
REMARK   45  A    between atoms: _117  and  _118
REMARK   46  A    between atoms: _117  and  _120
REMARK   47  A    between atoms: _120  and  _121
REMARK   48  A    between atoms: _121  and  _122
REMARK   49  A    between atoms: _127  and  _129
REMARK   50  A    between atoms: _129  and  _130
REMARK   51  A    between atoms: _129  and  _132
REMARK   52  A    between atoms: _132  and  _133
REMARK   53  A    between atoms: _136  and  _138
REMARK   54  A    between atoms: _138  and  _139
REMARK   55  A    between atoms: _138  and  _141
REMARK   56  A    between atoms: _141  and  _142
REMARK   57  A    between atoms: _145  and  _147
REMARK   58  A    between atoms: _147  and  _148
REMARK   59  A    between atoms: _147  and  _150
REMARK   60  A    between atoms: _153  and  _155
REMARK   61  A    between atoms: _155  and  _156
REMARK   62  A    between atoms: _155  and  _158
REMARK   63  A    between atoms: _158  and  _159
REMARK   64  A    between atoms: _159  and  _160
REMARK   65  A    between atoms: _165  and  _167
REMARK   66  A    between atoms: _167  and  _168
REMARK   67  A    between atoms: _167  and  _170
REMARK   68  A    between atoms: _170  and  _171
REMARK   69  A    between atoms: _171  and  _172
REMARK   70  A    between atoms: _177  and  _179
REMARK   71  A    between atoms: _179  and  _180
REMARK   72  A    between atoms: _183  and  _185
REMARK   73  A    between atoms: _185  and  _186
REMARK   74  A    between atoms: _185  and  _188
REMARK   75  A    between atoms: _188  and  _189
REMARK   76  A    between atoms: _189  and  _190
REMARK   77  A    between atoms: _193  and  _195
REMARK   78  A    between atoms: _195  and  _196
REMARK   79  A    between atoms: _195  and  _198
REMARK   80  A    between atoms: _198  and  _199
REMARK   81  A    between atoms: _202  and  _204
REMARK   82  A    between atoms: _204  and  _205
REMARK   83  A    between atoms: _204  and  _207
REMARK   84  A    between atoms: _207  and  _208
REMARK   85  A    between atoms: _208  and  _209
REMARK   86  A    between atoms: _211  and  _213
REMARK   87  A    between atoms: _213  and  _214
REMARK   88  A    between atoms: _213  and  _216
REMARK   89  A    between atoms: _216  and  _217
REMARK   90  A    between atoms: _220  and  _222
REMARK   91  A    between atoms: _222  and  _223
REMARK   92  A    between atoms: _222  and  _225
REMARK   93  A    between atoms: _225  and  _226
REMARK   94  A    between atoms: _229  and  _231
REMARK   95  A    between atoms: _231  and  _232
REMARK   96  A    between atoms: _231  and  _234
REMARK   97  A    between atoms: _234  and  _235
REMARK   98  A    between atoms: _238  and  _240
REMARK   99  A    between atoms: _240  and  _241
REMARK  100  A    between atoms: _240  and  _243
REMARK  101  A    between atoms: _246  and  _248
REMARK  102  A    between atoms: _248  and  _249
REMARK  103  A    between atoms: _248  and  _251
REMARK  104  A    between atoms: _251  and  _252
REMARK                            x       y       z     vdW  Elec       q    Type
REMARK                         _______ _______ _______ _____ _____    ______ ____
ROOT
ATOM      1  O   HOH     1      11.180  10.773  -4.316  0.00  0.00    +0.000 OA
ENDROOT
TORSDOF 0
REMARK  Name = ../refined-set-2016/4b3d/4b3d_pocket.pdb
REMARK  104 active torsions:
REMARK  status: ('A' for Active; 'I' for Inactive)
REMARK    1  A    between atoms: _1  and  _3
REMARK    2  A    between atoms: _3  and  _4
REMARK    3  A    between atoms: _3  and  _6
REMARK    4  A    between atoms: _9  and  _11
REMARK    5  A    between atoms: _11  and  _12
REMARK    6  A    between atoms: _11  and  _14
REMARK    7  A    between atoms: _14  and  _15
REMARK    8  A    between atoms: _15  and  _16
REMARK    9  A    between atoms: _18  and  _20
REMARK   10  A    between atoms: _20  and  _21
REMARK   11  A    between atoms: _20  and  _23
REMARK   12  A    between atoms: _23  and  _24
REMARK   13  A    between atoms: _34  and  _36
REMARK   14  A    between atoms: _36  and  _37
REMARK   15  A    between atoms: _36  and  _39
REMARK   16  A    between atoms: _39  and  _40
REMARK   17  A    between atoms: _43  and  _45
REMARK   18  A    between atoms: _45  and  _46
REMARK   19  A    between atoms: _45  and  _48
REMARK   20  A    between atoms: _48  and  _49
REMARK   21  A    between atoms: _52  and  _54
REMARK   22  A    between atoms: _54  and  _55
REMARK   23  A    between atoms: _54  and  _57
REMARK   24  A    between atoms: _57  and  _58
REMARK   25  A    between atoms: _61  and  _63
REMARK   26  A    between atoms: _63  and  _64
REMARK   27  A    between atoms: _67  and  _69
REMARK   28  A    between atoms: _69  and  _70
REMARK   29  A    between atoms: _69  and  _72
REMARK   30  A    between atoms: _72  and  _73
REMARK   31  A    between atoms: _78  and  _79
REMARK   32  A    between atoms: _81  and  _83
REMARK   33  A    between atoms: _83  and  _84
REMARK   34  A    between atoms: _87  and  _89
REMARK   35  A    between atoms: _89  and  _90
REMARK   36  A    between atoms: _89  and  _92
REMARK   37  A    between atoms: _92  and  _93
REMARK   38  A    between atoms: _93  and  _94
REMARK   39  A    between atoms: _94  and  _95
REMARK   40  A    between atoms: _104  and  _106
REMARK   41  A    between atoms: _106  and  _107
REMARK   42  A    between atoms: _106  and  _109
REMARK   43  A    between atoms: _109  and  _110
REMARK   44  A    between atoms: _115  and  _117
REMARK   45  A    between atoms: _117  and  _118
REMARK   46  A    between atoms: _117  and  _120
REMARK   47  A    between atoms: _120  and  _121
REMARK   48  A    between atoms: _121  and  _122
REMARK   49  A    between atoms: _127  and  _129
REMARK   50  A    between atoms: _129  and  _130
REMARK   51  A    between atoms: _129  and  _132
REMARK   52  A    between atoms: _132  and  _133
REMARK   53  A    between atoms: _136  and  _138
REMARK   54  A    between atoms: _138  and  _139
REMARK   55  A    between atoms: _138  and  _141
REMARK   56  A    between atoms: _141  and  _142
REMARK   57  A    between atoms: _145  and  _147
REMARK   58  A    between atoms: _147  and  _148
REMARK   59  A    between atoms: _147  and  _150
REMARK   60  A    between atoms: _153  and  _155
REMARK   61  A    between atoms: _155  and  _156
REMARK   62  A    between atoms: _155  and  _158
REMARK   63  A    between atoms: _158  and  _159
REMARK   64  A    between atoms: _159  and  _160
REMARK   65  A    between atoms: _165  and  _167
REMARK   66  A    between atoms: _167  and  _168
REMARK   67  A    between atoms: _167  and  _170
REMARK   68  A    between atoms: _170  and  _171
REMARK   69  A    between atoms: _171  and  _172
REMARK   70  A    between atoms: _177  and  _179
REMARK   71  A    between atoms: _179  and  _180
REMARK   72  A    between atoms: _183  and  _185
REMARK   73  A    between atoms: _185  and  _186
REMARK   74  A    between atoms: _185  and  _188
REMARK   75  A    between atoms: _188  and  _189
REMARK   76  A    between atoms: _189  and  _190
REMARK   77  A    between atoms: _193  and  _195
REMARK   78  A    between atoms: _195  and  _196
REMARK   79  A    between atoms: _195  and  _198
REMARK   80  A    between atoms: _198  and  _199
REMARK   81  A    between atoms: _202  and  _204
REMARK   82  A    between atoms: _204  and  _205
REMARK   83  A    between atoms: _204  and  _207
REMARK   84  A    between atoms: _207  and  _208
REMARK   85  A    between atoms: _208  and  _209
REMARK   86  A    between atoms: _211  and  _213
REMARK   87  A    between atoms: _213  and  _214
REMARK   88  A    between atoms: _213  and  _216
REMARK   89  A    between atoms: _216  and  _217
REMARK   90  A    between atoms: _220  and  _222
REMARK   91  A    between atoms: _222  and  _223
REMARK   92  A    between atoms: _222  and  _225
REMARK   93  A    between atoms: _225  and  _226
REMARK   94  A    between atoms: _229  and  _231
REMARK   95  A    between atoms: _231  and  _232
REMARK   96  A    between atoms: _231  and  _234
REMARK   97  A    between atoms: _234  and  _235
REMARK   98  A    between atoms: _238  and  _240
REMARK   99  A    between atoms: _240  and  _241
REMARK  100  A    between atoms: _240  and  _243
REMARK  101  A    between atoms: _246  and  _248
REMARK  102  A    between atoms: _248  and  _249
REMARK  103  A    between atoms: _248  and  _251
REMARK  104  A    between atoms: _251  and  _252
REMARK                            x       y       z     vdW  Elec       q    Type
REMARK                         _______ _______ _______ _____ _____    ______ ____
ROOT
ATOM      1  O   HOH     1       7.206  12.315  -1.201  0.00  0.00    +0.000 OA
ENDROOT
TORSDOF 0
REMARK  Name = ../refined-set-2016/4b3d/4b3d_pocket.pdb
REMARK  104 active torsions:
REMARK  status: ('A' for Active; 'I' for Inactive)
REMARK    1  A    between atoms: _1  and  _3
REMARK    2  A    between atoms: _3  and  _4
REMARK    3  A    between atoms: _3  and  _6
REMARK    4  A    between atoms: _9  and  _11
REMARK    5  A    between atoms: _11  and  _12
REMARK    6  A    between atoms: _11  and  _14
REMARK    7  A    between atoms: _14  and  _15
REMARK    8  A    between atoms: _15  and  _16
REMARK    9  A    between atoms: _18  and  _20
REMARK   10  A    between atoms: _20  and  _21
REMARK   11  A    between atoms: _20  and  _23
REMARK   12  A    between atoms: _23  and  _24
REMARK   13  A    between atoms: _34  and  _36
REMARK   14  A    between atoms: _36  and  _37
REMARK   15  A    between atoms: _36  and  _39
REMARK   16  A    between atoms: _39  and  _40
REMARK   17  A    between atoms: _43  and  _45
REMARK   18  A    between atoms: _45  and  _46
REMARK   19  A    between atoms: _45  and  _48
REMARK   20  A    between atoms: _48  and  _49
REMARK   21  A    between atoms: _52  and  _54
REMARK   22  A    between atoms: _54  and  _55
REMARK   23  A    between atoms: _54  and  _57
REMARK   24  A    between atoms: _57  and  _58
REMARK   25  A    between atoms: _61  and  _63
REMARK   26  A    between atoms: _63  and  _64
REMARK   27  A    between atoms: _67  and  _69
REMARK   28  A    between atoms: _69  and  _70
REMARK   29  A    between atoms: _69  and  _72
REMARK   30  A    between atoms: _72  and  _73
REMARK   31  A    between atoms: _78  and  _79
REMARK   32  A    between atoms: _81  and  _83
REMARK   33  A    between atoms: _83  and  _84
REMARK   34  A    between atoms: _87  and  _89
REMARK   35  A    between atoms: _89  and  _90
REMARK   36  A    between atoms: _89  and  _92
REMARK   37  A    between atoms: _92  and  _93
REMARK   38  A    between atoms: _93  and  _94
REMARK   39  A    between atoms: _94  and  _95
REMARK   40  A    between atoms: _104  and  _106
REMARK   41  A    between atoms: _106  and  _107
REMARK   42  A    between atoms: _106  and  _109
REMARK   43  A    between atoms: _109  and  _110
REMARK   44  A    between atoms: _115  and  _117
REMARK   45  A    between atoms: _117  and  _118
REMARK   46  A    between atoms: _117  and  _120
REMARK   47  A    between atoms: _120  and  _121
REMARK   48  A    between atoms: _121  and  _122
REMARK   49  A    between atoms: _127  and  _129
REMARK   50  A    between atoms: _129  and  _130
REMARK   51  A    between atoms: _129  and  _132
REMARK   52  A    between atoms: _132  and  _133
REMARK   53  A    between atoms: _136  and  _138
REMARK   54  A    between atoms: _138  and  _139
REMARK   55  A    between atoms: _138  and  _141
REMARK   56  A    between atoms: _141  and  _142
REMARK   57  A    between atoms: _145  and  _147
REMARK   58  A    between atoms: _147  and  _148
REMARK   59  A    between atoms: _147  and  _150
REMARK   60  A    between atoms: _153  and  _155
REMARK   61  A    between atoms: _155  and  _156
REMARK   62  A    between atoms: _155  and  _158
REMARK   63  A    between atoms: _158  and  _159
REMARK   64  A    between atoms: _159  and  _160
REMARK   65  A    between atoms: _165  and  _167
REMARK   66  A    between atoms: _167  and  _168
REMARK   67  A    between atoms: _167  and  _170
REMARK   68  A    between atoms: _170  and  _171
REMARK   69  A    between atoms: _171  and  _172
REMARK   70  A    between atoms: _177  and  _179
REMARK   71  A    between atoms: _179  and  _180
REMARK   72  A    between atoms: _183  and  _185
REMARK   73  A    between atoms: _185  and  _186
REMARK   74  A    between atoms: _185  and  _188
REMARK   75  A    between atoms: _188  and  _189
REMARK   76  A    between atoms: _189  and  _190
REMARK   77  A    between atoms: _193  and  _195
REMARK   78  A    between atoms: _195  and  _196
REMARK   79  A    between atoms: _195  and  _198
REMARK   80  A    between atoms: _198  and  _199
REMARK   81  A    between atoms: _202  and  _204
REMARK   82  A    between atoms: _204  and  _205
REMARK   83  A    between atoms: _204  and  _207
REMARK   84  A    between atoms: _207  and  _208
REMARK   85  A    between atoms: _208  and  _209
REMARK   86  A    between atoms: _211  and  _213
REMARK   87  A    between atoms: _213  and  _214
REMARK   88  A    between atoms: _213  and  _216
REMARK   89  A    between atoms: _216  and  _217
REMARK   90  A    between atoms: _220  and  _222
REMARK   91  A    between atoms: _222  and  _223
REMARK   92  A    between atoms: _222  and  _225
REMARK   93  A    between atoms: _225  and  _226
REMARK   94  A    between atoms: _229  and  _231
REMARK   95  A    between atoms: _231  and  _232
REMARK   96  A    between atoms: _231  and  _234
REMARK   97  A    between atoms: _234  and  _235
REMARK   98  A    between atoms: _238  and  _240
REMARK   99  A    between atoms: _240  and  _241
REMARK  100  A    between atoms: _240  and  _243
REMARK  101  A    between atoms: _246  and  _248
REMARK  102  A    between atoms: _248  and  _249
REMARK  103  A    between atoms: _248  and  _251
REMARK  104  A    between atoms: _251  and  _252
REMARK                            x       y       z     vdW  Elec       q    Type
REMARK                         _______ _______ _______ _____ _____    ______ ____
ROOT
ATOM      1  O   HOH     1       7.985  11.544   5.151  0.00  0.00    +0.000 OA
ENDROOT
TORSDOF 0
REMARK  Name = ../refined-set-2016/4b3d/4b3d_pocket.pdb
REMARK  104 active torsions:
REMARK  status: ('A' for Active; 'I' for Inactive)
REMARK    1  A    between atoms: _1  and  _3
REMARK    2  A    between atoms: _3  and  _4
REMARK    3  A    between atoms: _3  and  _6
REMARK    4  A    between atoms: _9  and  _11
REMARK    5  A    between atoms: _11  and  _12
REMARK    6  A    between atoms: _11  and  _14
REMARK    7  A    between atoms: _14  and  _15
REMARK    8  A    between atoms: _15  and  _16
REMARK    9  A    between atoms: _18  and  _20
REMARK   10  A    between atoms: _20  and  _21
REMARK   11  A    between atoms: _20  and  _23
REMARK   12  A    between atoms: _23  and  _24
REMARK   13  A    between atoms: _34  and  _36
REMARK   14  A    between atoms: _36  and  _37
REMARK   15  A    between atoms: _36  and  _39
REMARK   16  A    between atoms: _39  and  _40
REMARK   17  A    between atoms: _43  and  _45
REMARK   18  A    between atoms: _45  and  _46
REMARK   19  A    between atoms: _45  and  _48
REMARK   20  A    between atoms: _48  and  _49
REMARK   21  A    between atoms: _52  and  _54
REMARK   22  A    between atoms: _54  and  _55
REMARK   23  A    between atoms: _54  and  _57
REMARK   24  A    between atoms: _57  and  _58
REMARK   25  A    between atoms: _61  and  _63
REMARK   26  A    between atoms: _63  and  _64
REMARK   27  A    between atoms: _67  and  _69
REMARK   28  A    between atoms: _69  and  _70
REMARK   29  A    between atoms: _69  and  _72
REMARK   30  A    between atoms: _72  and  _73
REMARK   31  A    between atoms: _78  and  _79
REMARK   32  A    between atoms: _81  and  _83
REMARK   33  A    between atoms: _83  and  _84
REMARK   34  A    between atoms: _87  and  _89
REMARK   35  A    between atoms: _89  and  _90
REMARK   36  A    between atoms: _89  and  _92
REMARK   37  A    between atoms: _92  and  _93
REMARK   38  A    between atoms: _93  and  _94
REMARK   39  A    between atoms: _94  and  _95
REMARK   40  A    between atoms: _104  and  _106
REMARK   41  A    between atoms: _106  and  _107
REMARK   42  A    between atoms: _106  and  _109
REMARK   43  A    between atoms: _109  and  _110
REMARK   44  A    between atoms: _115  and  _117
REMARK   45  A    between atoms: _117  and  _118
REMARK   46  A    between atoms: _117  and  _120
REMARK   47  A    between atoms: _120  and  _121
REMARK   48  A    between atoms: _121  and  _122
REMARK   49  A    between atoms: _127  and  _129
REMARK   50  A    between atoms: _129  and  _130
REMARK   51  A    between atoms: _129  and  _132
REMARK   52  A    between atoms: _132  and  _133
REMARK   53  A    between atoms: _136  and  _138
REMARK   54  A    between atoms: _138  and  _139
REMARK   55  A    between atoms: _138  and  _141
REMARK   56  A    between atoms: _141  and  _142
REMARK   57  A    between atoms: _145  and  _147
REMARK   58  A    between atoms: _147  and  _148
REMARK   59  A    between atoms: _147  and  _150
REMARK   60  A    between atoms: _153  and  _155
REMARK   61  A    between atoms: _155  and  _156
REMARK   62  A    between atoms: _155  and  _158
REMARK   63  A    between atoms: _158  and  _159
REMARK   64  A    between atoms: _159  and  _160
REMARK   65  A    between atoms: _165  and  _167
REMARK   66  A    between atoms: _167  and  _168
REMARK   67  A    between atoms: _167  and  _170
REMARK   68  A    between atoms: _170  and  _171
REMARK   69  A    between atoms: _171  and  _172
REMARK   70  A    between atoms: _177  and  _179
REMARK   71  A    between atoms: _179  and  _180
REMARK   72  A    between atoms: _183  and  _185
REMARK   73  A    between atoms: _185  and  _186
REMARK   74  A    between atoms: _185  and  _188
REMARK   75  A    between atoms: _188  and  _189
REMARK   76  A    between atoms: _189  and  _190
REMARK   77  A    between atoms: _193  and  _195
REMARK   78  A    between atoms: _195  and  _196
REMARK   79  A    between atoms: _195  and  _198
REMARK   80  A    between atoms: _198  and  _199
REMARK   81  A    between atoms: _202  and  _204
REMARK   82  A    between atoms: _204  and  _205
REMARK   83  A    between atoms: _204  and  _207
REMARK   84  A    between atoms: _207  and  _208
REMARK   85  A    between atoms: _208  and  _209
REMARK   86  A    between atoms: _211  and  _213
REMARK   87  A    between atoms: _213  and  _214
REMARK   88  A    between atoms: _213  and  _216
REMARK   89  A    between atoms: _216  and  _217
REMARK   90  A    between atoms: _220  and  _222
REMARK   91  A    between atoms: _222  and  _223
REMARK   92  A    between atoms: _222  and  _225
REMARK   93  A    between atoms: _225  and  _226
REMARK   94  A    between atoms: _229  and  _231
REMARK   95  A    between atoms: _231  and  _232
REMARK   96  A    between atoms: _231  and  _234
REMARK   97  A    between atoms: _234  and  _235
REMARK   98  A    between atoms: _238  and  _240
REMARK   99  A    between atoms: _240  and  _241
REMARK  100  A    between atoms: _240  and  _243
REMARK  101  A    between atoms: _246  and  _248
REMARK  102  A    between atoms: _248  and  _249
REMARK  103  A    between atoms: _248  and  _251
REMARK  104  A    between atoms: _251  and  _252
REMARK                            x       y       z     vdW  Elec       q    Type
REMARK                         _______ _______ _______ _____ _____    ______ ____
ROOT
ATOM      1  O   HOH     1       3.049   5.323   0.991  0.00  0.00    +0.000 OA
ENDROOT
TORSDOF 0
REMARK  Name = ../refined-set-2016/4b3d/4b3d_pocket.pdb
REMARK  104 active torsions:
REMARK  status: ('A' for Active; 'I' for Inactive)
REMARK    1  A    between atoms: _1  and  _3
REMARK    2  A    between atoms: _3  and  _4
REMARK    3  A    between atoms: _3  and  _6
REMARK    4  A    between atoms: _9  and  _11
REMARK    5  A    between atoms: _11  and  _12
REMARK    6  A    between atoms: _11  and  _14
REMARK    7  A    between atoms: _14  and  _15
REMARK    8  A    between atoms: _15  and  _16
REMARK    9  A    between atoms: _18  and  _20
REMARK   10  A    between atoms: _20  and  _21
REMARK   11  A    between atoms: _20  and  _23
REMARK   12  A    between atoms: _23  and  _24
REMARK   13  A    between atoms: _34  and  _36
REMARK   14  A    between atoms: _36  and  _37
REMARK   15  A    between atoms: _36  and  _39
REMARK   16  A    between atoms: _39  and  _40
REMARK   17  A    between atoms: _43  and  _45
REMARK   18  A    between atoms: _45  and  _46
REMARK   19  A    between atoms: _45  and  _48
REMARK   20  A    between atoms: _48  and  _49
REMARK   21  A    between atoms: _52  and  _54
REMARK   22  A    between atoms: _54  and  _55
REMARK   23  A    between atoms: _54  and  _57
REMARK   24  A    between atoms: _57  and  _58
REMARK   25  A    between atoms: _61  and  _63
REMARK   26  A    between atoms: _63  and  _64
REMARK   27  A    between atoms: _67  and  _69
REMARK   28  A    between atoms: _69  and  _70
REMARK   29  A    between atoms: _69  and  _72
REMARK   30  A    between atoms: _72  and  _73
REMARK   31  A    between atoms: _78  and  _79
REMARK   32  A    between atoms: _81  and  _83
REMARK   33  A    between atoms: _83  and  _84
REMARK   34  A    between atoms: _87  and  _89
REMARK   35  A    between atoms: _89  and  _90
REMARK   36  A    between atoms: _89  and  _92
REMARK   37  A    between atoms: _92  and  _93
REMARK   38  A    between atoms: _93  and  _94
REMARK   39  A    between atoms: _94  and  _95
REMARK   40  A    between atoms: _104  and  _106
REMARK   41  A    between atoms: _106  and  _107
REMARK   42  A    between atoms: _106  and  _109
REMARK   43  A    between atoms: _109  and  _110
REMARK   44  A    between atoms: _115  and  _117
REMARK   45  A    between atoms: _117  and  _118
REMARK   46  A    between atoms: _117  and  _120
REMARK   47  A    between atoms: _120  and  _121
REMARK   48  A    between atoms: _121  and  _122
REMARK   49  A    between atoms: _127  and  _129
REMARK   50  A    between atoms: _129  and  _130
REMARK   51  A    between atoms: _129  and  _132
REMARK   52  A    between atoms: _132  and  _133
REMARK   53  A    between atoms: _136  and  _138
REMARK   54  A    between atoms: _138  and  _139
REMARK   55  A    between atoms: _138  and  _141
REMARK   56  A    between atoms: _141  and  _142
REMARK   57  A    between atoms: _145  and  _147
REMARK   58  A    between atoms: _147  and  _148
REMARK   59  A    between atoms: _147  and  _150
REMARK   60  A    between atoms: _153  and  _155
REMARK   61  A    between atoms: _155  and  _156
REMARK   62  A    between atoms: _155  and  _158
REMARK   63  A    between atoms: _158  and  _159
REMARK   64  A    between atoms: _159  and  _160
REMARK   65  A    between atoms: _165  and  _167
REMARK   66  A    between atoms: _167  and  _168
REMARK   67  A    between atoms: _167  and  _170
REMARK   68  A    between atoms: _170  and  _171
REMARK   69  A    between atoms: _171  and  _172
REMARK   70  A    between atoms: _177  and  _179
REMARK   71  A    between atoms: _179  and  _180
REMARK   72  A    between atoms: _183  and  _185
REMARK   73  A    between atoms: _185  and  _186
REMARK   74  A    between atoms: _185  and  _188
REMARK   75  A    between atoms: _188  and  _189
REMARK   76  A    between atoms: _189  and  _190
REMARK   77  A    between atoms: _193  and  _195
REMARK   78  A    between atoms: _195  and  _196
REMARK   79  A    between atoms: _195  and  _198
REMARK   80  A    between atoms: _198  and  _199
REMARK   81  A    between atoms: _202  and  _204
REMARK   82  A    between atoms: _204  and  _205
REMARK   83  A    between atoms: _204  and  _207
REMARK   84  A    between atoms: _207  and  _208
REMARK   85  A    between atoms: _208  and  _209
REMARK   86  A    between atoms: _211  and  _213
REMARK   87  A    between atoms: _213  and  _214
REMARK   88  A    between atoms: _213  and  _216
REMARK   89  A    between atoms: _216  and  _217
REMARK   90  A    between atoms: _220  and  _222
REMARK   91  A    between atoms: _222  and  _223
REMARK   92  A    between atoms: _222  and  _225
REMARK   93  A    between atoms: _225  and  _226
REMARK   94  A    between atoms: _229  and  _231
REMARK   95  A    between atoms: _231  and  _232
REMARK   96  A    between atoms: _231  and  _234
REMARK   97  A    between atoms: _234  and  _235
REMARK   98  A    between atoms: _238  and  _240
REMARK   99  A    between atoms: _240  and  _241
REMARK  100  A    between atoms: _240  and  _243
REMARK  101  A    between atoms: _246  and  _248
REMARK  102  A    between atoms: _248  and  _249
REMARK  103  A    between atoms: _248  and  _251
REMARK  104  A    between atoms: _251  and  _252
REMARK                            x       y       z     vdW  Elec       q    Type
REMARK                         _______ _______ _______ _____ _____    ______ ____
ROOT
ATOM      1  O   HOH     1       9.629  12.778  -2.487  0.00  0.00    +0.000 OA
ENDROOT
TORSDOF 0
REMARK  Name = ../refined-set-2016/4b3d/4b3d_pocket.pdb
REMARK  104 active torsions:
REMARK  status: ('A' for Active; 'I' for Inactive)
REMARK    1  A    between atoms: _1  and  _3
REMARK    2  A    between atoms: _3  and  _4
REMARK    3  A    between atoms: _3  and  _6
REMARK    4  A    between atoms: _9  and  _11
REMARK    5  A    between atoms: _11  and  _12
REMARK    6  A    between atoms: _11  and  _14
REMARK    7  A    between atoms: _14  and  _15
REMARK    8  A    between atoms: _15  and  _16
REMARK    9  A    between atoms: _18  and  _20
REMARK   10  A    between atoms: _20  and  _21
REMARK   11  A    between atoms: _20  and  _23
REMARK   12  A    between atoms: _23  and  _24
REMARK   13  A    between atoms: _34  and  _36
REMARK   14  A    between atoms: _36  and  _37
REMARK   15  A    between atoms: _36  and  _39
REMARK   16  A    between atoms: _39  and  _40
REMARK   17  A    between atoms: _43  and  _45
REMARK   18  A    between atoms: _45  and  _46
REMARK   19  A    between atoms: _45  and  _48
REMARK   20  A    between atoms: _48  and  _49
REMARK   21  A    between atoms: _52  and  _54
REMARK   22  A    between atoms: _54  and  _55
REMARK   23  A    between atoms: _54  and  _57
REMARK   24  A    between atoms: _57  and  _58
REMARK   25  A    between atoms: _61  and  _63
REMARK   26  A    between atoms: _63  and  _64
REMARK   27  A    between atoms: _67  and  _69
REMARK   28  A    between atoms: _69  and  _70
REMARK   29  A    between atoms: _69  and  _72
REMARK   30  A    between atoms: _72  and  _73
REMARK   31  A    between atoms: _78  and  _79
REMARK   32  A    between atoms: _81  and  _83
REMARK   33  A    between atoms: _83  and  _84
REMARK   34  A    between atoms: _87  and  _89
REMARK   35  A    between atoms: _89  and  _90
REMARK   36  A    between atoms: _89  and  _92
REMARK   37  A    between atoms: _92  and  _93
REMARK   38  A    between atoms: _93  and  _94
REMARK   39  A    between atoms: _94  and  _95
REMARK   40  A    between atoms: _104  and  _106
REMARK   41  A    between atoms: _106  and  _107
REMARK   42  A    between atoms: _106  and  _109
REMARK   43  A    between atoms: _109  and  _110
REMARK   44  A    between atoms: _115  and  _117
REMARK   45  A    between atoms: _117  and  _118
REMARK   46  A    between atoms: _117  and  _120
REMARK   47  A    between atoms: _120  and  _121
REMARK   48  A    between atoms: _121  and  _122
REMARK   49  A    between atoms: _127  and  _129
REMARK   50  A    between atoms: _129  and  _130
REMARK   51  A    between atoms: _129  and  _132
REMARK   52  A    between atoms: _132  and  _133
REMARK   53  A    between atoms: _136  and  _138
REMARK   54  A    between atoms: _138  and  _139
REMARK   55  A    between atoms: _138  and  _141
REMARK   56  A    between atoms: _141  and  _142
REMARK   57  A    between atoms: _145  and  _147
REMARK   58  A    between atoms: _147  and  _148
REMARK   59  A    between atoms: _147  and  _150
REMARK   60  A    between atoms: _153  and  _155
REMARK   61  A    between atoms: _155  and  _156
REMARK   62  A    between atoms: _155  and  _158
REMARK   63  A    between atoms: _158  and  _159
REMARK   64  A    between atoms: _159  and  _160
REMARK   65  A    between atoms: _165  and  _167
REMARK   66  A    between atoms: _167  and  _168
REMARK   67  A    between atoms: _167  and  _170
REMARK   68  A    between atoms: _170  and  _171
REMARK   69  A    between atoms: _171  and  _172
REMARK   70  A    between atoms: _177  and  _179
REMARK   71  A    between atoms: _179  and  _180
REMARK   72  A    between atoms: _183  and  _185
REMARK   73  A    between atoms: _185  and  _186
REMARK   74  A    between atoms: _185  and  _188
REMARK   75  A    between atoms: _188  and  _189
REMARK   76  A    between atoms: _189  and  _190
REMARK   77  A    between atoms: _193  and  _195
REMARK   78  A    between atoms: _195  and  _196
REMARK   79  A    between atoms: _195  and  _198
REMARK   80  A    between atoms: _198  and  _199
REMARK   81  A    between atoms: _202  and  _204
REMARK   82  A    between atoms: _204  and  _205
REMARK   83  A    between atoms: _204  and  _207
REMARK   84  A    between atoms: _207  and  _208
REMARK   85  A    between atoms: _208  and  _209
REMARK   86  A    between atoms: _211  and  _213
REMARK   87  A    between atoms: _213  and  _214
REMARK   88  A    between atoms: _213  and  _216
REMARK   89  A    between atoms: _216  and  _217
REMARK   90  A    between atoms: _220  and  _222
REMARK   91  A    between atoms: _222  and  _223
REMARK   92  A    between atoms: _222  and  _225
REMARK   93  A    between atoms: _225  and  _226
REMARK   94  A    between atoms: _229  and  _231
REMARK   95  A    between atoms: _231  and  _232
REMARK   96  A    between atoms: _231  and  _234
REMARK   97  A    between atoms: _234  and  _235
REMARK   98  A    between atoms: _238  and  _240
REMARK   99  A    between atoms: _240  and  _241
REMARK  100  A    between atoms: _240  and  _243
REMARK  101  A    between atoms: _246  and  _248
REMARK  102  A    between atoms: _248  and  _249
REMARK  103  A    between atoms: _248  and  _251
REMARK  104  A    between atoms: _251  and  _252
REMARK                            x       y       z     vdW  Elec       q    Type
REMARK                         _______ _______ _______ _____ _____    ______ ____
ROOT
ATOM      1  O   HOH     1       8.926  13.216   0.771  0.00  0.00    +0.000 OA
ENDROOT
TORSDOF 0
REMARK  Name = ../refined-set-2016/4b3d/4b3d_pocket.pdb
REMARK  104 active torsions:
REMARK  status: ('A' for Active; 'I' for Inactive)
REMARK    1  A    between atoms: _1  and  _3
REMARK    2  A    between atoms: _3  and  _4
REMARK    3  A    between atoms: _3  and  _6
REMARK    4  A    between atoms: _9  and  _11
REMARK    5  A    between atoms: _11  and  _12
REMARK    6  A    between atoms: _11  and  _14
REMARK    7  A    between atoms: _14  and  _15
REMARK    8  A    between atoms: _15  and  _16
REMARK    9  A    between atoms: _18  and  _20
REMARK   10  A    between atoms: _20  and  _21
REMARK   11  A    between atoms: _20  and  _23
REMARK   12  A    between atoms: _23  and  _24
REMARK   13  A    between atoms: _34  and  _36
REMARK   14  A    between atoms: _36  and  _37
REMARK   15  A    between atoms: _36  and  _39
REMARK   16  A    between atoms: _39  and  _40
REMARK   17  A    between atoms: _43  and  _45
REMARK   18  A    between atoms: _45  and  _46
REMARK   19  A    between atoms: _45  and  _48
REMARK   20  A    between atoms: _48  and  _49
REMARK   21  A    between atoms: _52  and  _54
REMARK   22  A    between atoms: _54  and  _55
REMARK   23  A    between atoms: _54  and  _57
REMARK   24  A    between atoms: _57  and  _58
REMARK   25  A    between atoms: _61  and  _63
REMARK   26  A    between atoms: _63  and  _64
REMARK   27  A    between atoms: _67  and  _69
REMARK   28  A    between atoms: _69  and  _70
REMARK   29  A    between atoms: _69  and  _72
REMARK   30  A    between atoms: _72  and  _73
REMARK   31  A    between atoms: _78  and  _79
REMARK   32  A    between atoms: _81  and  _83
REMARK   33  A    between atoms: _83  and  _84
REMARK   34  A    between atoms: _87  and  _89
REMARK   35  A    between atoms: _89  and  _90
REMARK   36  A    between atoms: _89  and  _92
REMARK   37  A    between atoms: _92  and  _93
REMARK   38  A    between atoms: _93  and  _94
REMARK   39  A    between atoms: _94  and  _95
REMARK   40  A    between atoms: _104  and  _106
REMARK   41  A    between atoms: _106  and  _107
REMARK   42  A    between atoms: _106  and  _109
REMARK   43  A    between atoms: _109  and  _110
REMARK   44  A    between atoms: _115  and  _117
REMARK   45  A    between atoms: _117  and  _118
REMARK   46  A    between atoms: _117  and  _120
REMARK   47  A    between atoms: _120  and  _121
REMARK   48  A    between atoms: _121  and  _122
REMARK   49  A    between atoms: _127  and  _129
REMARK   50  A    between atoms: _129  and  _130
REMARK   51  A    between atoms: _129  and  _132
REMARK   52  A    between atoms: _132  and  _133
REMARK   53  A    between atoms: _136  and  _138
REMARK   54  A    between atoms: _138  and  _139
REMARK   55  A    between atoms: _138  and  _141
REMARK   56  A    between atoms: _141  and  _142
REMARK   57  A    between atoms: _145  and  _147
REMARK   58  A    between atoms: _147  and  _148
REMARK   59  A    between atoms: _147  and  _150
REMARK   60  A    between atoms: _153  and  _155
REMARK   61  A    between atoms: _155  and  _156
REMARK   62  A    between atoms: _155  and  _158
REMARK   63  A    between atoms: _158  and  _159
REMARK   64  A    between atoms: _159  and  _160
REMARK   65  A    between atoms: _165  and  _167
REMARK   66  A    between atoms: _167  and  _168
REMARK   67  A    between atoms: _167  and  _170
REMARK   68  A    between atoms: _170  and  _171
REMARK   69  A    between atoms: _171  and  _172
REMARK   70  A    between atoms: _177  and  _179
REMARK   71  A    between atoms: _179  and  _180
REMARK   72  A    between atoms: _183  and  _185
REMARK   73  A    between atoms: _185  and  _186
REMARK   74  A    between atoms: _185  and  _188
REMARK   75  A    between atoms: _188  and  _189
REMARK   76  A    between atoms: _189  and  _190
REMARK   77  A    between atoms: _193  and  _195
REMARK   78  A    between atoms: _195  and  _196
REMARK   79  A    between atoms: _195  and  _198
REMARK   80  A    between atoms: _198  and  _199
REMARK   81  A    between atoms: _202  and  _204
REMARK   82  A    between atoms: _204  and  _205
REMARK   83  A    between atoms: _204  and  _207
REMARK   84  A    between atoms: _207  and  _208
REMARK   85  A    between atoms: _208  and  _209
REMARK   86  A    between atoms: _211  and  _213
REMARK   87  A    between atoms: _213  and  _214
REMARK   88  A    between atoms: _213  and  _216
REMARK   89  A    between atoms: _216  and  _217
REMARK   90  A    between atoms: _220  and  _222
REMARK   91  A    between atoms: _222  and  _223
REMARK   92  A    between atoms: _222  and  _225
REMARK   93  A    between atoms: _225  and  _226
REMARK   94  A    between atoms: _229  and  _231
REMARK   95  A    between atoms: _231  and  _232
REMARK   96  A    between atoms: _231  and  _234
REMARK   97  A    between atoms: _234  and  _235
REMARK   98  A    between atoms: _238  and  _240
REMARK   99  A    between atoms: _240  and  _241
REMARK  100  A    between atoms: _240  and  _243
REMARK  101  A    between atoms: _246  and  _248
REMARK  102  A    between atoms: _248  and  _249
REMARK  103  A    between atoms: _248  and  _251
REMARK  104  A    between atoms: _251  and  _252
REMARK                            x       y       z     vdW  Elec       q    Type
REMARK                         _______ _______ _______ _____ _____    ______ ____
ROOT
ATOM      1  O   HOH     1       7.793  10.928   2.188  0.00  0.00    +0.000 OA
ENDROOT
TORSDOF 0
REMARK  Name = ../refined-set-2016/4b3d/4b3d_pocket.pdb
REMARK  104 active torsions:
REMARK  status: ('A' for Active; 'I' for Inactive)
REMARK    1  A    between atoms: _1  and  _3
REMARK    2  A    between atoms: _3  and  _4
REMARK    3  A    between atoms: _3  and  _6
REMARK    4  A    between atoms: _9  and  _11
REMARK    5  A    between atoms: _11  and  _12
REMARK    6  A    between atoms: _11  and  _14
REMARK    7  A    between atoms: _14  and  _15
REMARK    8  A    between atoms: _15  and  _16
REMARK    9  A    between atoms: _18  and  _20
REMARK   10  A    between atoms: _20  and  _21
REMARK   11  A    between atoms: _20  and  _23
REMARK   12  A    between atoms: _23  and  _24
REMARK   13  A    between atoms: _34  and  _36
REMARK   14  A    between atoms: _36  and  _37
REMARK   15  A    between atoms: _36  and  _39
REMARK   16  A    between atoms: _39  and  _40
REMARK   17  A    between atoms: _43  and  _45
REMARK   18  A    between atoms: _45  and  _46
REMARK   19  A    between atoms: _45  and  _48
REMARK   20  A    between atoms: _48  and  _49
REMARK   21  A    between atoms: _52  and  _54
REMARK   22  A    between atoms: _54  and  _55
REMARK   23  A    between atoms: _54  and  _57
REMARK   24  A    between atoms: _57  and  _58
REMARK   25  A    between atoms: _61  and  _63
REMARK   26  A    between atoms: _63  and  _64
REMARK   27  A    between atoms: _67  and  _69
REMARK   28  A    between atoms: _69  and  _70
REMARK   29  A    between atoms: _69  and  _72
REMARK   30  A    between atoms: _72  and  _73
REMARK   31  A    between atoms: _78  and  _79
REMARK   32  A    between atoms: _81  and  _83
REMARK   33  A    between atoms: _83  and  _84
REMARK   34  A    between atoms: _87  and  _89
REMARK   35  A    between atoms: _89  and  _90
REMARK   36  A    between atoms: _89  and  _92
REMARK   37  A    between atoms: _92  and  _93
REMARK   38  A    between atoms: _93  and  _94
REMARK   39  A    between atoms: _94  and  _95
REMARK   40  A    between atoms: _104  and  _106
REMARK   41  A    between atoms: _106  and  _107
REMARK   42  A    between atoms: _106  and  _109
REMARK   43  A    between atoms: _109  and  _110
REMARK   44  A    between atoms: _115  and  _117
REMARK   45  A    between atoms: _117  and  _118
REMARK   46  A    between atoms: _117  and  _120
REMARK   47  A    between atoms: _120  and  _121
REMARK   48  A    between atoms: _121  and  _122
REMARK   49  A    between atoms: _127  and  _129
REMARK   50  A    between atoms: _129  and  _130
REMARK   51  A    between atoms: _129  and  _132
REMARK   52  A    between atoms: _132  and  _133
REMARK   53  A    between atoms: _136  and  _138
REMARK   54  A    between atoms: _138  and  _139
REMARK   55  A    between atoms: _138  and  _141
REMARK   56  A    between atoms: _141  and  _142
REMARK   57  A    between atoms: _145  and  _147
REMARK   58  A    between atoms: _147  and  _148
REMARK   59  A    between atoms: _147  and  _150
REMARK   60  A    between atoms: _153  and  _155
REMARK   61  A    between atoms: _155  and  _156
REMARK   62  A    between atoms: _155  and  _158
REMARK   63  A    between atoms: _158  and  _159
REMARK   64  A    between atoms: _159  and  _160
REMARK   65  A    between atoms: _165  and  _167
REMARK   66  A    between atoms: _167  and  _168
REMARK   67  A    between atoms: _167  and  _170
REMARK   68  A    between atoms: _170  and  _171
REMARK   69  A    between atoms: _171  and  _172
REMARK   70  A    between atoms: _177  and  _179
REMARK   71  A    between atoms: _179  and  _180
REMARK   72  A    between atoms: _183  and  _185
REMARK   73  A    between atoms: _185  and  _186
REMARK   74  A    between atoms: _185  and  _188
REMARK   75  A    between atoms: _188  and  _189
REMARK   76  A    between atoms: _189  and  _190
REMARK   77  A    between atoms: _193  and  _195
REMARK   78  A    between atoms: _195  and  _196
REMARK   79  A    between atoms: _195  and  _198
REMARK   80  A    between atoms: _198  and  _199
REMARK   81  A    between atoms: _202  and  _204
REMARK   82  A    between atoms: _204  and  _205
REMARK   83  A    between atoms: _204  and  _207
REMARK   84  A    between atoms: _207  and  _208
REMARK   85  A    between atoms: _208  and  _209
REMARK   86  A    between atoms: _211  and  _213
REMARK   87  A    between atoms: _213  and  _214
REMARK   88  A    between atoms: _213  and  _216
REMARK   89  A    between atoms: _216  and  _217
REMARK   90  A    between atoms: _220  and  _222
REMARK   91  A    between atoms: _222  and  _223
REMARK   92  A    between atoms: _222  and  _225
REMARK   93  A    between atoms: _225  and  _226
REMARK   94  A    between atoms: _229  and  _231
REMARK   95  A    between atoms: _231  and  _232
REMARK   96  A    between atoms: _231  and  _234
REMARK   97  A    between atoms: _234  and  _235
REMARK   98  A    between atoms: _238  and  _240
REMARK   99  A    between atoms: _240  and  _241
REMARK  100  A    between atoms: _240  and  _243
REMARK  101  A    between atoms: _246  and  _248
REMARK  102  A    between atoms: _248  and  _249
REMARK  103  A    between atoms: _248  and  _251
REMARK  104  A    between atoms: _251  and  _252
REMARK                            x       y       z     vdW  Elec       q    Type
REMARK                         _______ _______ _______ _____ _____    ______ ____
ROOT
ATOM      1  O   HOH     1       3.141   3.468   4.664  0.00  0.00    +0.000 OA
ENDROOT
TORSDOF 0
REMARK  Name = ../refined-set-2016/4b3d/4b3d_pocket.pdb
REMARK  104 active torsions:
REMARK  status: ('A' for Active; 'I' for Inactive)
REMARK    1  A    between atoms: _1  and  _3
REMARK    2  A    between atoms: _3  and  _4
REMARK    3  A    between atoms: _3  and  _6
REMARK    4  A    between atoms: _9  and  _11
REMARK    5  A    between atoms: _11  and  _12
REMARK    6  A    between atoms: _11  and  _14
REMARK    7  A    between atoms: _14  and  _15
REMARK    8  A    between atoms: _15  and  _16
REMARK    9  A    between atoms: _18  and  _20
REMARK   10  A    between atoms: _20  and  _21
REMARK   11  A    between atoms: _20  and  _23
REMARK   12  A    between atoms: _23  and  _24
REMARK   13  A    between atoms: _34  and  _36
REMARK   14  A    between atoms: _36  and  _37
REMARK   15  A    between atoms: _36  and  _39
REMARK   16  A    between atoms: _39  and  _40
REMARK   17  A    between atoms: _43  and  _45
REMARK   18  A    between atoms: _45  and  _46
REMARK   19  A    between atoms: _45  and  _48
REMARK   20  A    between atoms: _48  and  _49
REMARK   21  A    between atoms: _52  and  _54
REMARK   22  A    between atoms: _54  and  _55
REMARK   23  A    between atoms: _54  and  _57
REMARK   24  A    between atoms: _57  and  _58
REMARK   25  A    between atoms: _61  and  _63
REMARK   26  A    between atoms: _63  and  _64
REMARK   27  A    between atoms: _67  and  _69
REMARK   28  A    between atoms: _69  and  _70
REMARK   29  A    between atoms: _69  and  _72
REMARK   30  A    between atoms: _72  and  _73
REMARK   31  A    between atoms: _78  and  _79
REMARK   32  A    between atoms: _81  and  _83
REMARK   33  A    between atoms: _83  and  _84
REMARK   34  A    between atoms: _87  and  _89
REMARK   35  A    between atoms: _89  and  _90
REMARK   36  A    between atoms: _89  and  _92
REMARK   37  A    between atoms: _92  and  _93
REMARK   38  A    between atoms: _93  and  _94
REMARK   39  A    between atoms: _94  and  _95
REMARK   40  A    between atoms: _104  and  _106
REMARK   41  A    between atoms: _106  and  _107
REMARK   42  A    between atoms: _106  and  _109
REMARK   43  A    between atoms: _109  and  _110
REMARK   44  A    between atoms: _115  and  _117
REMARK   45  A    between atoms: _117  and  _118
REMARK   46  A    between atoms: _117  and  _120
REMARK   47  A    between atoms: _120  and  _121
REMARK   48  A    between atoms: _121  and  _122
REMARK   49  A    between atoms: _127  and  _129
REMARK   50  A    between atoms: _129  and  _130
REMARK   51  A    between atoms: _129  and  _132
REMARK   52  A    between atoms: _132  and  _133
REMARK   53  A    between atoms: _136  and  _138
REMARK   54  A    between atoms: _138  and  _139
REMARK   55  A    between atoms: _138  and  _141
REMARK   56  A    between atoms: _141  and  _142
REMARK   57  A    between atoms: _145  and  _147
REMARK   58  A    between atoms: _147  and  _148
REMARK   59  A    between atoms: _147  and  _150
REMARK   60  A    between atoms: _153  and  _155
REMARK   61  A    between atoms: _155  and  _156
REMARK   62  A    between atoms: _155  and  _158
REMARK   63  A    between atoms: _158  and  _159
REMARK   64  A    between atoms: _159  and  _160
REMARK   65  A    between atoms: _165  and  _167
REMARK   66  A    between atoms: _167  and  _168
REMARK   67  A    between atoms: _167  and  _170
REMARK   68  A    between atoms: _170  and  _171
REMARK   69  A    between atoms: _171  and  _172
REMARK   70  A    between atoms: _177  and  _179
REMARK   71  A    between atoms: _179  and  _180
REMARK   72  A    between atoms: _183  and  _185
REMARK   73  A    between atoms: _185  and  _186
REMARK   74  A    between atoms: _185  and  _188
REMARK   75  A    between atoms: _188  and  _189
REMARK   76  A    between atoms: _189  and  _190
REMARK   77  A    between atoms: _193  and  _195
REMARK   78  A    between atoms: _195  and  _196
REMARK   79  A    between atoms: _195  and  _198
REMARK   80  A    between atoms: _198  and  _199
REMARK   81  A    between atoms: _202  and  _204
REMARK   82  A    between atoms: _204  and  _205
REMARK   83  A    between atoms: _204  and  _207
REMARK   84  A    between atoms: _207  and  _208
REMARK   85  A    between atoms: _208  and  _209
REMARK   86  A    between atoms: _211  and  _213
REMARK   87  A    between atoms: _213  and  _214
REMARK   88  A    between atoms: _213  and  _216
REMARK   89  A    between atoms: _216  and  _217
REMARK   90  A    between atoms: _220  and  _222
REMARK   91  A    between atoms: _222  and  _223
REMARK   92  A    between atoms: _222  and  _225
REMARK   93  A    between atoms: _225  and  _226
REMARK   94  A    between atoms: _229  and  _231
REMARK   95  A    between atoms: _231  and  _232
REMARK   96  A    between atoms: _231  and  _234
REMARK   97  A    between atoms: _234  and  _235
REMARK   98  A    between atoms: _238  and  _240
REMARK   99  A    between atoms: _240  and  _241
REMARK  100  A    between atoms: _240  and  _243
REMARK  101  A    between atoms: _246  and  _248
REMARK  102  A    between atoms: _248  and  _249
REMARK  103  A    between atoms: _248  and  _251
REMARK  104  A    between atoms: _251  and  _252
REMARK                            x       y       z     vdW  Elec       q    Type
REMARK                         _______ _______ _______ _____ _____    ______ ____
ROOT
ATOM      1  O   HOH     1       4.216   5.287   6.254  0.00  0.00    +0.000 OA
ENDROOT
TORSDOF 0
REMARK  Name = ../refined-set-2016/4b3d/4b3d_pocket.pdb
REMARK  104 active torsions:
REMARK  status: ('A' for Active; 'I' for Inactive)
REMARK    1  A    between atoms: _1  and  _3
REMARK    2  A    between atoms: _3  and  _4
REMARK    3  A    between atoms: _3  and  _6
REMARK    4  A    between atoms: _9  and  _11
REMARK    5  A    between atoms: _11  and  _12
REMARK    6  A    between atoms: _11  and  _14
REMARK    7  A    between atoms: _14  and  _15
REMARK    8  A    between atoms: _15  and  _16
REMARK    9  A    between atoms: _18  and  _20
REMARK   10  A    between atoms: _20  and  _21
REMARK   11  A    between atoms: _20  and  _23
REMARK   12  A    between atoms: _23  and  _24
REMARK   13  A    between atoms: _34  and  _36
REMARK   14  A    between atoms: _36  and  _37
REMARK   15  A    between atoms: _36  and  _39
REMARK   16  A    between atoms: _39  and  _40
REMARK   17  A    between atoms: _43  and  _45
REMARK   18  A    between atoms: _45  and  _46
REMARK   19  A    between atoms: _45  and  _48
REMARK   20  A    between atoms: _48  and  _49
REMARK   21  A    between atoms: _52  and  _54
REMARK   22  A    between atoms: _54  and  _55
REMARK   23  A    between atoms: _54  and  _57
REMARK   24  A    between atoms: _57  and  _58
REMARK   25  A    between atoms: _61  and  _63
REMARK   26  A    between atoms: _63  and  _64
REMARK   27  A    between atoms: _67  and  _69
REMARK   28  A    between atoms: _69  and  _70
REMARK   29  A    between atoms: _69  and  _72
REMARK   30  A    between atoms: _72  and  _73
REMARK   31  A    between atoms: _78  and  _79
REMARK   32  A    between atoms: _81  and  _83
REMARK   33  A    between atoms: _83  and  _84
REMARK   34  A    between atoms: _87  and  _89
REMARK   35  A    between atoms: _89  and  _90
REMARK   36  A    between atoms: _89  and  _92
REMARK   37  A    between atoms: _92  and  _93
REMARK   38  A    between atoms: _93  and  _94
REMARK   39  A    between atoms: _94  and  _95
REMARK   40  A    between atoms: _104  and  _106
REMARK   41  A    between atoms: _106  and  _107
REMARK   42  A    between atoms: _106  and  _109
REMARK   43  A    between atoms: _109  and  _110
REMARK   44  A    between atoms: _115  and  _117
REMARK   45  A    between atoms: _117  and  _118
REMARK   46  A    between atoms: _117  and  _120
REMARK   47  A    between atoms: _120  and  _121
REMARK   48  A    between atoms: _121  and  _122
REMARK   49  A    between atoms: _127  and  _129
REMARK   50  A    between atoms: _129  and  _130
REMARK   51  A    between atoms: _129  and  _132
REMARK   52  A    between atoms: _132  and  _133
REMARK   53  A    between atoms: _136  and  _138
REMARK   54  A    between atoms: _138  and  _139
REMARK   55  A    between atoms: _138  and  _141
REMARK   56  A    between atoms: _141  and  _142
REMARK   57  A    between atoms: _145  and  _147
REMARK   58  A    between atoms: _147  and  _148
REMARK   59  A    between atoms: _147  and  _150
REMARK   60  A    between atoms: _153  and  _155
REMARK   61  A    between atoms: _155  and  _156
REMARK   62  A    between atoms: _155  and  _158
REMARK   63  A    between atoms: _158  and  _159
REMARK   64  A    between atoms: _159  and  _160
REMARK   65  A    between atoms: _165  and  _167
REMARK   66  A    between atoms: _167  and  _168
REMARK   67  A    between atoms: _167  and  _170
REMARK   68  A    between atoms: _170  and  _171
REMARK   69  A    between atoms: _171  and  _172
REMARK   70  A    between atoms: _177  and  _179
REMARK   71  A    between atoms: _179  and  _180
REMARK   72  A    between atoms: _183  and  _185
REMARK   73  A    between atoms: _185  and  _186
REMARK   74  A    between atoms: _185  and  _188
REMARK   75  A    between atoms: _188  and  _189
REMARK   76  A    between atoms: _189  and  _190
REMARK   77  A    between atoms: _193  and  _195
REMARK   78  A    between atoms: _195  and  _196
REMARK   79  A    between atoms: _195  and  _198
REMARK   80  A    between atoms: _198  and  _199
REMARK   81  A    between atoms: _202  and  _204
REMARK   82  A    between atoms: _204  and  _205
REMARK   83  A    between atoms: _204  and  _207
REMARK   84  A    between atoms: _207  and  _208
REMARK   85  A    between atoms: _208  and  _209
REMARK   86  A    between atoms: _211  and  _213
REMARK   87  A    between atoms: _213  and  _214
REMARK   88  A    between atoms: _213  and  _216
REMARK   89  A    between atoms: _216  and  _217
REMARK   90  A    between atoms: _220  and  _222
REMARK   91  A    between atoms: _222  and  _223
REMARK   92  A    between atoms: _222  and  _225
REMARK   93  A    between atoms: _225  and  _226
REMARK   94  A    between atoms: _229  and  _231
REMARK   95  A    between atoms: _231  and  _232
REMARK   96  A    between atoms: _231  and  _234
REMARK   97  A    between atoms: _234  and  _235
REMARK   98  A    between atoms: _238  and  _240
REMARK   99  A    between atoms: _240  and  _241
REMARK  100  A    between atoms: _240  and  _243
REMARK  101  A    between atoms: _246  and  _248
REMARK  102  A    between atoms: _248  and  _249
REMARK  103  A    between atoms: _248  and  _251
REMARK  104  A    between atoms: _251  and  _252
REMARK                            x       y       z     vdW  Elec       q    Type
REMARK                         _______ _______ _______ _____ _____    ______ ____
ROOT
ATOM      1  O   HOH     1       1.256   2.634   2.834  0.00  0.00    +0.000 OA
ENDROOT
TORSDOF 0
REMARK  Name = ../refined-set-2016/4b3d/4b3d_pocket.pdb
REMARK  104 active torsions:
REMARK  status: ('A' for Active; 'I' for Inactive)
REMARK    1  A    between atoms: _1  and  _3
REMARK    2  A    between atoms: _3  and  _4
REMARK    3  A    between atoms: _3  and  _6
REMARK    4  A    between atoms: _9  and  _11
REMARK    5  A    between atoms: _11  and  _12
REMARK    6  A    between atoms: _11  and  _14
REMARK    7  A    between atoms: _14  and  _15
REMARK    8  A    between atoms: _15  and  _16
REMARK    9  A    between atoms: _18  and  _20
REMARK   10  A    between atoms: _20  and  _21
REMARK   11  A    between atoms: _20  and  _23
REMARK   12  A    between atoms: _23  and  _24
REMARK   13  A    between atoms: _34  and  _36
REMARK   14  A    between atoms: _36  and  _37
REMARK   15  A    between atoms: _36  and  _39
REMARK   16  A    between atoms: _39  and  _40
REMARK   17  A    between atoms: _43  and  _45
REMARK   18  A    between atoms: _45  and  _46
REMARK   19  A    between atoms: _45  and  _48
REMARK   20  A    between atoms: _48  and  _49
REMARK   21  A    between atoms: _52  and  _54
REMARK   22  A    between atoms: _54  and  _55
REMARK   23  A    between atoms: _54  and  _57
REMARK   24  A    between atoms: _57  and  _58
REMARK   25  A    between atoms: _61  and  _63
REMARK   26  A    between atoms: _63  and  _64
REMARK   27  A    between atoms: _67  and  _69
REMARK   28  A    between atoms: _69  and  _70
REMARK   29  A    between atoms: _69  and  _72
REMARK   30  A    between atoms: _72  and  _73
REMARK   31  A    between atoms: _78  and  _79
REMARK   32  A    between atoms: _81  and  _83
REMARK   33  A    between atoms: _83  and  _84
REMARK   34  A    between atoms: _87  and  _89
REMARK   35  A    between atoms: _89  and  _90
REMARK   36  A    between atoms: _89  and  _92
REMARK   37  A    between atoms: _92  and  _93
REMARK   38  A    between atoms: _93  and  _94
REMARK   39  A    between atoms: _94  and  _95
REMARK   40  A    between atoms: _104  and  _106
REMARK   41  A    between atoms: _106  and  _107
REMARK   42  A    between atoms: _106  and  _109
REMARK   43  A    between atoms: _109  and  _110
REMARK   44  A    between atoms: _115  and  _117
REMARK   45  A    between atoms: _117  and  _118
REMARK   46  A    between atoms: _117  and  _120
REMARK   47  A    between atoms: _120  and  _121
REMARK   48  A    between atoms: _121  and  _122
REMARK   49  A    between atoms: _127  and  _129
REMARK   50  A    between atoms: _129  and  _130
REMARK   51  A    between atoms: _129  and  _132
REMARK   52  A    between atoms: _132  and  _133
REMARK   53  A    between atoms: _136  and  _138
REMARK   54  A    between atoms: _138  and  _139
REMARK   55  A    between atoms: _138  and  _141
REMARK   56  A    between atoms: _141  and  _142
REMARK   57  A    between atoms: _145  and  _147
REMARK   58  A    between atoms: _147  and  _148
REMARK   59  A    between atoms: _147  and  _150
REMARK   60  A    between atoms: _153  and  _155
REMARK   61  A    between atoms: _155  and  _156
REMARK   62  A    between atoms: _155  and  _158
REMARK   63  A    between atoms: _158  and  _159
REMARK   64  A    between atoms: _159  and  _160
REMARK   65  A    between atoms: _165  and  _167
REMARK   66  A    between atoms: _167  and  _168
REMARK   67  A    between atoms: _167  and  _170
REMARK   68  A    between atoms: _170  and  _171
REMARK   69  A    between atoms: _171  and  _172
REMARK   70  A    between atoms: _177  and  _179
REMARK   71  A    between atoms: _179  and  _180
REMARK   72  A    between atoms: _183  and  _185
REMARK   73  A    between atoms: _185  and  _186
REMARK   74  A    between atoms: _185  and  _188
REMARK   75  A    between atoms: _188  and  _189
REMARK   76  A    between atoms: _189  and  _190
REMARK   77  A    between atoms: _193  and  _195
REMARK   78  A    between atoms: _195  and  _196
REMARK   79  A    between atoms: _195  and  _198
REMARK   80  A    between atoms: _198  and  _199
REMARK   81  A    between atoms: _202  and  _204
REMARK   82  A    between atoms: _204  and  _205
REMARK   83  A    between atoms: _204  and  _207
REMARK   84  A    between atoms: _207  and  _208
REMARK   85  A    between atoms: _208  and  _209
REMARK   86  A    between atoms: _211  and  _213
REMARK   87  A    between atoms: _213  and  _214
REMARK   88  A    between atoms: _213  and  _216
REMARK   89  A    between atoms: _216  and  _217
REMARK   90  A    between atoms: _220  and  _222
REMARK   91  A    between atoms: _222  and  _223
REMARK   92  A    between atoms: _222  and  _225
REMARK   93  A    between atoms: _225  and  _226
REMARK   94  A    between atoms: _229  and  _231
REMARK   95  A    between atoms: _231  and  _232
REMARK   96  A    between atoms: _231  and  _234
REMARK   97  A    between atoms: _234  and  _235
REMARK   98  A    between atoms: _238  and  _240
REMARK   99  A    between atoms: _240  and  _241
REMARK  100  A    between atoms: _240  and  _243
REMARK  101  A    between atoms: _246  and  _248
REMARK  102  A    between atoms: _248  and  _249
REMARK  103  A    between atoms: _248  and  _251
REMARK  104  A    between atoms: _251  and  _252
REMARK                            x       y       z     vdW  Elec       q    Type
REMARK                         _______ _______ _______ _____ _____    ______ ____
ROOT
ATOM      1  O   HOH     1       4.032   5.940  -5.893  0.00  0.00    +0.000 OA
ENDROOT
TORSDOF 0
REMARK  Name = ../refined-set-2016/4b3d/4b3d_pocket.pdb
REMARK  104 active torsions:
REMARK  status: ('A' for Active; 'I' for Inactive)
REMARK    1  A    between atoms: _1  and  _3
REMARK    2  A    between atoms: _3  and  _4
REMARK    3  A    between atoms: _3  and  _6
REMARK    4  A    between atoms: _9  and  _11
REMARK    5  A    between atoms: _11  and  _12
REMARK    6  A    between atoms: _11  and  _14
REMARK    7  A    between atoms: _14  and  _15
REMARK    8  A    between atoms: _15  and  _16
REMARK    9  A    between atoms: _18  and  _20
REMARK   10  A    between atoms: _20  and  _21
REMARK   11  A    between atoms: _20  and  _23
REMARK   12  A    between atoms: _23  and  _24
REMARK   13  A    between atoms: _34  and  _36
REMARK   14  A    between atoms: _36  and  _37
REMARK   15  A    between atoms: _36  and  _39
REMARK   16  A    between atoms: _39  and  _40
REMARK   17  A    between atoms: _43  and  _45
REMARK   18  A    between atoms: _45  and  _46
REMARK   19  A    between atoms: _45  and  _48
REMARK   20  A    between atoms: _48  and  _49
REMARK   21  A    between atoms: _52  and  _54
REMARK   22  A    between atoms: _54  and  _55
REMARK   23  A    between atoms: _54  and  _57
REMARK   24  A    between atoms: _57  and  _58
REMARK   25  A    between atoms: _61  and  _63
REMARK   26  A    between atoms: _63  and  _64
REMARK   27  A    between atoms: _67  and  _69
REMARK   28  A    between atoms: _69  and  _70
REMARK   29  A    between atoms: _69  and  _72
REMARK   30  A    between atoms: _72  and  _73
REMARK   31  A    between atoms: _78  and  _79
REMARK   32  A    between atoms: _81  and  _83
REMARK   33  A    between atoms: _83  and  _84
REMARK   34  A    between atoms: _87  and  _89
REMARK   35  A    between atoms: _89  and  _90
REMARK   36  A    between atoms: _89  and  _92
REMARK   37  A    between atoms: _92  and  _93
REMARK   38  A    between atoms: _93  and  _94
REMARK   39  A    between atoms: _94  and  _95
REMARK   40  A    between atoms: _104  and  _106
REMARK   41  A    between atoms: _106  and  _107
REMARK   42  A    between atoms: _106  and  _109
REMARK   43  A    between atoms: _109  and  _110
REMARK   44  A    between atoms: _115  and  _117
REMARK   45  A    between atoms: _117  and  _118
REMARK   46  A    between atoms: _117  and  _120
REMARK   47  A    between atoms: _120  and  _121
REMARK   48  A    between atoms: _121  and  _122
REMARK   49  A    between atoms: _127  and  _129
REMARK   50  A    between atoms: _129  and  _130
REMARK   51  A    between atoms: _129  and  _132
REMARK   52  A    between atoms: _132  and  _133
REMARK   53  A    between atoms: _136  and  _138
REMARK   54  A    between atoms: _138  and  _139
REMARK   55  A    between atoms: _138  and  _141
REMARK   56  A    between atoms: _141  and  _142
REMARK   57  A    between atoms: _145  and  _147
REMARK   58  A    between atoms: _147  and  _148
REMARK   59  A    between atoms: _147  and  _150
REMARK   60  A    between atoms: _153  and  _155
REMARK   61  A    between atoms: _155  and  _156
REMARK   62  A    between atoms: _155  and  _158
REMARK   63  A    between atoms: _158  and  _159
REMARK   64  A    between atoms: _159  and  _160
REMARK   65  A    between atoms: _165  and  _167
REMARK   66  A    between atoms: _167  and  _168
REMARK   67  A    between atoms: _167  and  _170
REMARK   68  A    between atoms: _170  and  _171
REMARK   69  A    between atoms: _171  and  _172
REMARK   70  A    between atoms: _177  and  _179
REMARK   71  A    between atoms: _179  and  _180
REMARK   72  A    between atoms: _183  and  _185
REMARK   73  A    between atoms: _185  and  _186
REMARK   74  A    between atoms: _185  and  _188
REMARK   75  A    between atoms: _188  and  _189
REMARK   76  A    between atoms: _189  and  _190
REMARK   77  A    between atoms: _193  and  _195
REMARK   78  A    between atoms: _195  and  _196
REMARK   79  A    between atoms: _195  and  _198
REMARK   80  A    between atoms: _198  and  _199
REMARK   81  A    between atoms: _202  and  _204
REMARK   82  A    between atoms: _204  and  _205
REMARK   83  A    between atoms: _204  and  _207
REMARK   84  A    between atoms: _207  and  _208
REMARK   85  A    between atoms: _208  and  _209
REMARK   86  A    between atoms: _211  and  _213
REMARK   87  A    between atoms: _213  and  _214
REMARK   88  A    between atoms: _213  and  _216
REMARK   89  A    between atoms: _216  and  _217
REMARK   90  A    between atoms: _220  and  _222
REMARK   91  A    between atoms: _222  and  _223
REMARK   92  A    between atoms: _222  and  _225
REMARK   93  A    between atoms: _225  and  _226
REMARK   94  A    between atoms: _229  and  _231
REMARK   95  A    between atoms: _231  and  _232
REMARK   96  A    between atoms: _231  and  _234
REMARK   97  A    between atoms: _234  and  _235
REMARK   98  A    between atoms: _238  and  _240
REMARK   99  A    between atoms: _240  and  _241
REMARK  100  A    between atoms: _240  and  _243
REMARK  101  A    between atoms: _246  and  _248
REMARK  102  A    between atoms: _248  and  _249
REMARK  103  A    between atoms: _248  and  _251
REMARK  104  A    between atoms: _251  and  _252
REMARK                            x       y       z     vdW  Elec       q    Type
REMARK                         _______ _______ _______ _____ _____    ______ ____
ROOT
ATOM      1  O   HOH     1       0.568   4.262   0.758  0.00  0.00    +0.000 OA
ENDROOT
TORSDOF 0
