REMARK  Name = ../refined-set-2016/4rsk/4rsk_pocket.pdb
REMARK  116 active torsions:
REMARK  status: ('A' for Active; 'I' for Inactive)
REMARK    1  A    between atoms: _1  and  _3
REMARK    2  A    between atoms: _3  and  _4
REMARK    3  A    between atoms: _7  and  _9
REMARK    4  A    between atoms: _9  and  _10
REMARK    5  A    between atoms: _13  and  _15
REMARK    6  A    between atoms: _15  and  _16
REMARK    7  A    between atoms: _15  and  _18
REMARK    8  A    between atoms: _18  and  _19
REMARK    9  A    between atoms: _25  and  _27
REMARK   10  A    between atoms: _27  and  _28
REMARK   11  A    between atoms: _27  and  _30
REMARK   12  A    between atoms: _30  and  _31
REMARK   13  A    between atoms: _31  and  _32
REMARK   14  A    between atoms: _37  and  _39
REMARK   15  A    between atoms: _39  and  _40
REMARK   16  A    between atoms: _39  and  _42
REMARK   17  A    between atoms: _42  and  _43
REMARK   18  A    between atoms: _48  and  _50
REMARK   19  A    between atoms: _50  and  _51
REMARK   20  A    between atoms: _50  and  _53
REMARK   21  A    between atoms: _53  and  _54
REMARK   22  A    between atoms: _54  and  _55
REMARK   23  A    between atoms: _57  and  _59
REMARK   24  A    between atoms: _59  and  _60
REMARK   25  A    between atoms: _59  and  _62
REMARK   26  A    between atoms: _62  and  _63
REMARK   27  A    between atoms: _66  and  _68
REMARK   28  A    between atoms: _68  and  _69
REMARK   29  A    between atoms: _68  and  _71
REMARK   30  A    between atoms: _71  and  _72
REMARK   31  A    between atoms: _72  and  _73
REMARK   32  A    between atoms: _73  and  _74
REMARK   33  A    between atoms: _83  and  _85
REMARK   34  A    between atoms: _85  and  _86
REMARK   35  A    between atoms: _85  and  _88
REMARK   36  A    between atoms: _88  and  _89
REMARK   37  A    between atoms: _89  and  _90
REMARK   38  A    between atoms: _90  and  _91
REMARK   39  A    between atoms: _91  and  _92
REMARK   40  A    between atoms: _97  and  _98
REMARK   41  A    between atoms: _103  and  _105
REMARK   42  A    between atoms: _105  and  _106
REMARK   43  A    between atoms: _105  and  _108
REMARK   44  A    between atoms: _111  and  _113
REMARK   45  A    between atoms: _113  and  _114
REMARK   46  A    between atoms: _113  and  _116
REMARK   47  A    between atoms: _116  and  _117
REMARK   48  A    between atoms: _122  and  _124
REMARK   49  A    between atoms: _124  and  _125
REMARK   50  A    between atoms: _124  and  _127
REMARK   51  A    between atoms: _127  and  _128
REMARK   52  A    between atoms: _131  and  _133
REMARK   53  A    between atoms: _133  and  _134
REMARK   54  A    between atoms: _133  and  _136
REMARK   55  A    between atoms: _136  and  _137
REMARK   56  A    between atoms: _143  and  _145
REMARK   57  A    between atoms: _145  and  _146
REMARK   58  A    between atoms: _145  and  _148
REMARK   59  A    between atoms: _148  and  _149
REMARK   60  A    between atoms: _152  and  _154
REMARK   61  A    between atoms: _154  and  _155
REMARK   62  A    between atoms: _154  and  _157
REMARK   63  A    between atoms: _157  and  _158
REMARK   64  A    between atoms: _161  and  _163
REMARK   65  A    between atoms: _163  and  _164
REMARK   66  A    between atoms: _163  and  _166
REMARK   67  A    between atoms: _166  and  _167
REMARK   68  A    between atoms: _170  and  _172
REMARK   69  A    between atoms: _172  and  _173
REMARK   70  A    between atoms: _172  and  _175
REMARK   71  A    between atoms: _177  and  _179
REMARK   72  A    between atoms: _179  and  _180
REMARK   73  A    between atoms: _179  and  _182
REMARK   74  A    between atoms: _182  and  _183
REMARK   75  A    between atoms: _183  and  _184
REMARK   76  A    between atoms: _184  and  _185
REMARK   77  A    between atoms: _194  and  _196
REMARK   78  A    between atoms: _196  and  _197
REMARK   79  A    between atoms: _196  and  _199
REMARK   80  A    between atoms: _199  and  _200
REMARK   81  A    between atoms: _200  and  _201
REMARK   82  A    between atoms: _201  and  _202
REMARK   83  A    between atoms: _202  and  _203
REMARK   84  A    between atoms: _207  and  _209
REMARK   85  A    between atoms: _209  and  _210
REMARK   86  A    between atoms: _209  and  _212
REMARK   87  A    between atoms: _212  and  _213
REMARK   88  A    between atoms: _216  and  _218
REMARK   89  A    between atoms: _218  and  _219
REMARK   90  A    between atoms: _218  and  _221
REMARK   91  A    between atoms: _224  and  _226
REMARK   92  A    between atoms: _226  and  _227
REMARK   93  A    between atoms: _230  and  _232
REMARK   94  A    between atoms: _232  and  _233
REMARK   95  A    between atoms: _232  and  _235
REMARK   96  A    between atoms: _238  and  _240
REMARK   97  A    between atoms: _240  and  _241
REMARK   98  A    between atoms: _240  and  _243
REMARK   99  A    between atoms: _243  and  _244
REMARK  100  A    between atoms: _249  and  _251
REMARK  101  A    between atoms: _251  and  _252
REMARK  102  A    between atoms: _251  and  _254
REMARK  103  A    between atoms: _254  and  _255
REMARK  104  A    between atoms: _261  and  _263
REMARK  105  A    between atoms: _263  and  _264
REMARK  106  A    between atoms: _263  and  _266
REMARK  107  A    between atoms: _266  and  _267
REMARK  108  A    between atoms: _270  and  _272
REMARK  109  A    between atoms: _272  and  _273
REMARK  110  A    between atoms: _276  and  _278
REMARK  111  A    between atoms: _278  and  _279
REMARK  112  A    between atoms: _278  and  _281
REMARK  113  A    between atoms: _281  and  _282
REMARK  114  A    between atoms: _284  and  _286
REMARK  115  A    between atoms: _286  and  _287
REMARK  116  A    between atoms: _286  and  _289
REMARK                            x       y       z     vdW  Elec       q    Type
REMARK                         _______ _______ _______ _____ _____    ______ ____
ROOT
ATOM      1  CA  ALA A   1     -10.266  52.904  25.555  0.00  0.00    +0.133 C 
ATOM      2  CB  ALA A   1     -11.032  53.038  24.250  0.00  0.00    +0.027 C 
ENDROOT
BRANCH   1   3
ATOM      3  N   ALA A   1      -9.610  54.136  25.941  0.00  0.00    -0.239 NA
ATOM      4  H   ALA A   1      -9.574  54.928  25.268  0.00  0.00    +0.142 HD
ENDBRANCH   1   3
BRANCH   1   5
ATOM      5  C   ALA A   1      -9.274  51.749  25.570  0.00  0.00    +0.224 C 
ATOM      6  O   ALA A   1      -9.567  50.668  26.078  0.00  0.00    -0.287 OA
ENDBRANCH   1   5
TORSDOF 2
REMARK  Name = ../refined-set-2016/4rsk/4rsk_pocket.pdb
REMARK  116 active torsions:
REMARK  status: ('A' for Active; 'I' for Inactive)
REMARK    1  A    between atoms: _1  and  _3
REMARK    2  A    between atoms: _3  and  _4
REMARK    3  A    between atoms: _7  and  _9
REMARK    4  A    between atoms: _9  and  _10
REMARK    5  A    between atoms: _13  and  _15
REMARK    6  A    between atoms: _15  and  _16
REMARK    7  A    between atoms: _15  and  _18
REMARK    8  A    between atoms: _18  and  _19
REMARK    9  A    between atoms: _25  and  _27
REMARK   10  A    between atoms: _27  and  _28
REMARK   11  A    between atoms: _27  and  _30
REMARK   12  A    between atoms: _30  and  _31
REMARK   13  A    between atoms: _31  and  _32
REMARK   14  A    between atoms: _37  and  _39
REMARK   15  A    between atoms: _39  and  _40
REMARK   16  A    between atoms: _39  and  _42
REMARK   17  A    between atoms: _42  and  _43
REMARK   18  A    between atoms: _48  and  _50
REMARK   19  A    between atoms: _50  and  _51
REMARK   20  A    between atoms: _50  and  _53
REMARK   21  A    between atoms: _53  and  _54
REMARK   22  A    between atoms: _54  and  _55
REMARK   23  A    between atoms: _57  and  _59
REMARK   24  A    between atoms: _59  and  _60
REMARK   25  A    between atoms: _59  and  _62
REMARK   26  A    between atoms: _62  and  _63
REMARK   27  A    between atoms: _66  and  _68
REMARK   28  A    between atoms: _68  and  _69
REMARK   29  A    between atoms: _68  and  _71
REMARK   30  A    between atoms: _71  and  _72
REMARK   31  A    between atoms: _72  and  _73
REMARK   32  A    between atoms: _73  and  _74
REMARK   33  A    between atoms: _83  and  _85
REMARK   34  A    between atoms: _85  and  _86
REMARK   35  A    between atoms: _85  and  _88
REMARK   36  A    between atoms: _88  and  _89
REMARK   37  A    between atoms: _89  and  _90
REMARK   38  A    between atoms: _90  and  _91
REMARK   39  A    between atoms: _91  and  _92
REMARK   40  A    between atoms: _97  and  _98
REMARK   41  A    between atoms: _103  and  _105
REMARK   42  A    between atoms: _105  and  _106
REMARK   43  A    between atoms: _105  and  _108
REMARK   44  A    between atoms: _111  and  _113
REMARK   45  A    between atoms: _113  and  _114
REMARK   46  A    between atoms: _113  and  _116
REMARK   47  A    between atoms: _116  and  _117
REMARK   48  A    between atoms: _122  and  _124
REMARK   49  A    between atoms: _124  and  _125
REMARK   50  A    between atoms: _124  and  _127
REMARK   51  A    between atoms: _127  and  _128
REMARK   52  A    between atoms: _131  and  _133
REMARK   53  A    between atoms: _133  and  _134
REMARK   54  A    between atoms: _133  and  _136
REMARK   55  A    between atoms: _136  and  _137
REMARK   56  A    between atoms: _143  and  _145
REMARK   57  A    between atoms: _145  and  _146
REMARK   58  A    between atoms: _145  and  _148
REMARK   59  A    between atoms: _148  and  _149
REMARK   60  A    between atoms: _152  and  _154
REMARK   61  A    between atoms: _154  and  _155
REMARK   62  A    between atoms: _154  and  _157
REMARK   63  A    between atoms: _157  and  _158
REMARK   64  A    between atoms: _161  and  _163
REMARK   65  A    between atoms: _163  and  _164
REMARK   66  A    between atoms: _163  and  _166
REMARK   67  A    between atoms: _166  and  _167
REMARK   68  A    between atoms: _170  and  _172
REMARK   69  A    between atoms: _172  and  _173
REMARK   70  A    between atoms: _172  and  _175
REMARK   71  A    between atoms: _177  and  _179
REMARK   72  A    between atoms: _179  and  _180
REMARK   73  A    between atoms: _179  and  _182
REMARK   74  A    between atoms: _182  and  _183
REMARK   75  A    between atoms: _183  and  _184
REMARK   76  A    between atoms: _184  and  _185
REMARK   77  A    between atoms: _194  and  _196
REMARK   78  A    between atoms: _196  and  _197
REMARK   79  A    between atoms: _196  and  _199
REMARK   80  A    between atoms: _199  and  _200
REMARK   81  A    between atoms: _200  and  _201
REMARK   82  A    between atoms: _201  and  _202
REMARK   83  A    between atoms: _202  and  _203
REMARK   84  A    between atoms: _207  and  _209
REMARK   85  A    between atoms: _209  and  _210
REMARK   86  A    between atoms: _209  and  _212
REMARK   87  A    between atoms: _212  and  _213
REMARK   88  A    between atoms: _216  and  _218
REMARK   89  A    between atoms: _218  and  _219
REMARK   90  A    between atoms: _218  and  _221
REMARK   91  A    between atoms: _224  and  _226
REMARK   92  A    between atoms: _226  and  _227
REMARK   93  A    between atoms: _230  and  _232
REMARK   94  A    between atoms: _232  and  _233
REMARK   95  A    between atoms: _232  and  _235
REMARK   96  A    between atoms: _238  and  _240
REMARK   97  A    between atoms: _240  and  _241
REMARK   98  A    between atoms: _240  and  _243
REMARK   99  A    between atoms: _243  and  _244
REMARK  100  A    between atoms: _249  and  _251
REMARK  101  A    between atoms: _251  and  _252
REMARK  102  A    between atoms: _251  and  _254
REMARK  103  A    between atoms: _254  and  _255
REMARK  104  A    between atoms: _261  and  _263
REMARK  105  A    between atoms: _263  and  _264
REMARK  106  A    between atoms: _263  and  _266
REMARK  107  A    between atoms: _266  and  _267
REMARK  108  A    between atoms: _270  and  _272
REMARK  109  A    between atoms: _272  and  _273
REMARK  110  A    between atoms: _276  and  _278
REMARK  111  A    between atoms: _278  and  _279
REMARK  112  A    between atoms: _278  and  _281
REMARK  113  A    between atoms: _281  and  _282
REMARK  114  A    between atoms: _284  and  _286
REMARK  115  A    between atoms: _286  and  _287
REMARK  116  A    between atoms: _286  and  _289
REMARK                            x       y       z     vdW  Elec       q    Type
REMARK                         _______ _______ _______ _____ _____    ______ ____
ROOT
ATOM      1  CA  PHE A   2      -9.180  47.015  27.433  0.00  0.00    +0.141 C 
ENDROOT
BRANCH   1   4
ATOM      2  C   ALA A   1      -9.543  48.671  29.144  0.00  0.00    +0.238 C 
ATOM      3  O   ALA A   1      -9.837  47.753  29.910  0.00  0.00    -0.274 OA
ATOM      4  N   PHE A   2      -9.199  48.411  27.881  0.00  0.00    -0.298 N 
ATOM      5  H   PHE A   2      -8.950  49.182  27.229  0.00  0.00    +0.150 HD
BRANCH   2   6
ATOM      6  CA  ALA A   1      -9.525  50.139  29.599  0.00  0.00    +0.145 C 
ATOM      7  CB  ALA A   1     -10.839  50.882  29.333  0.00  0.00    +0.028 C 
BRANCH   6   8
ATOM      8  N   ALA A   1      -8.408  50.846  29.004  0.00  0.00    -0.238 NA
ATOM      9  H   ALA A   1      -8.570  51.619  28.327  0.00  0.00    +0.142 HD
ENDBRANCH   6   8
ENDBRANCH   2   6
ENDBRANCH   1   4
BRANCH   1  10
ATOM     10  C   PHE A   2      -8.175  46.217  28.255  0.00  0.00    +0.227 C 
ATOM     11  O   PHE A   2      -8.461  45.145  28.764  0.00  0.00    -0.286 OA
ENDBRANCH   1  10
BRANCH   1  12
ATOM     12  CB  PHE A   2      -8.882  46.889  25.928  0.00  0.00    +0.054 C 
BRANCH  12  13
ATOM     13  CG  PHE A   2      -8.690  45.472  25.392  0.00  0.00    -0.020 A 
ATOM     14  CD2 PHE A   2      -7.490  44.769  25.533  0.00  0.00    -0.004 A 
ATOM     15  CE2 PHE A   2      -7.310  43.483  25.013  0.00  0.00    -0.000 A 
ATOM     16  CZ  PHE A   2      -8.364  42.894  24.309  0.00  0.00    -0.000 A 
ATOM     17  CE1 PHE A   2      -9.566  43.581  24.125  0.00  0.00    -0.000 A 
ATOM     18  CD1 PHE A   2      -9.713  44.863  24.661  0.00  0.00    -0.004 A 
ENDBRANCH  12  13
ENDBRANCH   1  12
TORSDOF 6
REMARK  Name = ../refined-set-2016/4rsk/4rsk_pocket.pdb
REMARK  116 active torsions:
REMARK  status: ('A' for Active; 'I' for Inactive)
REMARK    1  A    between atoms: _1  and  _3
REMARK    2  A    between atoms: _3  and  _4
REMARK    3  A    between atoms: _7  and  _9
REMARK    4  A    between atoms: _9  and  _10
REMARK    5  A    between atoms: _13  and  _15
REMARK    6  A    between atoms: _15  and  _16
REMARK    7  A    between atoms: _15  and  _18
REMARK    8  A    between atoms: _18  and  _19
REMARK    9  A    between atoms: _25  and  _27
REMARK   10  A    between atoms: _27  and  _28
REMARK   11  A    between atoms: _27  and  _30
REMARK   12  A    between atoms: _30  and  _31
REMARK   13  A    between atoms: _31  and  _32
REMARK   14  A    between atoms: _37  and  _39
REMARK   15  A    between atoms: _39  and  _40
REMARK   16  A    between atoms: _39  and  _42
REMARK   17  A    between atoms: _42  and  _43
REMARK   18  A    between atoms: _48  and  _50
REMARK   19  A    between atoms: _50  and  _51
REMARK   20  A    between atoms: _50  and  _53
REMARK   21  A    between atoms: _53  and  _54
REMARK   22  A    between atoms: _54  and  _55
REMARK   23  A    between atoms: _57  and  _59
REMARK   24  A    between atoms: _59  and  _60
REMARK   25  A    between atoms: _59  and  _62
REMARK   26  A    between atoms: _62  and  _63
REMARK   27  A    between atoms: _66  and  _68
REMARK   28  A    between atoms: _68  and  _69
REMARK   29  A    between atoms: _68  and  _71
REMARK   30  A    between atoms: _71  and  _72
REMARK   31  A    between atoms: _72  and  _73
REMARK   32  A    between atoms: _73  and  _74
REMARK   33  A    between atoms: _83  and  _85
REMARK   34  A    between atoms: _85  and  _86
REMARK   35  A    between atoms: _85  and  _88
REMARK   36  A    between atoms: _88  and  _89
REMARK   37  A    between atoms: _89  and  _90
REMARK   38  A    between atoms: _90  and  _91
REMARK   39  A    between atoms: _91  and  _92
REMARK   40  A    between atoms: _97  and  _98
REMARK   41  A    between atoms: _103  and  _105
REMARK   42  A    between atoms: _105  and  _106
REMARK   43  A    between atoms: _105  and  _108
REMARK   44  A    between atoms: _111  and  _113
REMARK   45  A    between atoms: _113  and  _114
REMARK   46  A    between atoms: _113  and  _116
REMARK   47  A    between atoms: _116  and  _117
REMARK   48  A    between atoms: _122  and  _124
REMARK   49  A    between atoms: _124  and  _125
REMARK   50  A    between atoms: _124  and  _127
REMARK   51  A    between atoms: _127  and  _128
REMARK   52  A    between atoms: _131  and  _133
REMARK   53  A    between atoms: _133  and  _134
REMARK   54  A    between atoms: _133  and  _136
REMARK   55  A    between atoms: _136  and  _137
REMARK   56  A    between atoms: _143  and  _145
REMARK   57  A    between atoms: _145  and  _146
REMARK   58  A    between atoms: _145  and  _148
REMARK   59  A    between atoms: _148  and  _149
REMARK   60  A    between atoms: _152  and  _154
REMARK   61  A    between atoms: _154  and  _155
REMARK   62  A    between atoms: _154  and  _157
REMARK   63  A    between atoms: _157  and  _158
REMARK   64  A    between atoms: _161  and  _163
REMARK   65  A    between atoms: _163  and  _164
REMARK   66  A    between atoms: _163  and  _166
REMARK   67  A    between atoms: _166  and  _167
REMARK   68  A    between atoms: _170  and  _172
REMARK   69  A    between atoms: _172  and  _173
REMARK   70  A    between atoms: _172  and  _175
REMARK   71  A    between atoms: _177  and  _179
REMARK   72  A    between atoms: _179  and  _180
REMARK   73  A    between atoms: _179  and  _182
REMARK   74  A    between atoms: _182  and  _183
REMARK   75  A    between atoms: _183  and  _184
REMARK   76  A    between atoms: _184  and  _185
REMARK   77  A    between atoms: _194  and  _196
REMARK   78  A    between atoms: _196  and  _197
REMARK   79  A    between atoms: _196  and  _199
REMARK   80  A    between atoms: _199  and  _200
REMARK   81  A    between atoms: _200  and  _201
REMARK   82  A    between atoms: _201  and  _202
REMARK   83  A    between atoms: _202  and  _203
REMARK   84  A    between atoms: _207  and  _209
REMARK   85  A    between atoms: _209  and  _210
REMARK   86  A    between atoms: _209  and  _212
REMARK   87  A    between atoms: _212  and  _213
REMARK   88  A    between atoms: _216  and  _218
REMARK   89  A    between atoms: _218  and  _219
REMARK   90  A    between atoms: _218  and  _221
REMARK   91  A    between atoms: _224  and  _226
REMARK   92  A    between atoms: _226  and  _227
REMARK   93  A    between atoms: _230  and  _232
REMARK   94  A    between atoms: _232  and  _233
REMARK   95  A    between atoms: _232  and  _235
REMARK   96  A    between atoms: _238  and  _240
REMARK   97  A    between atoms: _240  and  _241
REMARK   98  A    between atoms: _240  and  _243
REMARK   99  A    between atoms: _243  and  _244
REMARK  100  A    between atoms: _249  and  _251
REMARK  101  A    between atoms: _251  and  _252
REMARK  102  A    between atoms: _251  and  _254
REMARK  103  A    between atoms: _254  and  _255
REMARK  104  A    between atoms: _261  and  _263
REMARK  105  A    between atoms: _263  and  _264
REMARK  106  A    between atoms: _263  and  _266
REMARK  107  A    between atoms: _266  and  _267
REMARK  108  A    between atoms: _270  and  _272
REMARK  109  A    between atoms: _272  and  _273
REMARK  110  A    between atoms: _276  and  _278
REMARK  111  A    between atoms: _278  and  _279
REMARK  112  A    between atoms: _278  and  _281
REMARK  113  A    between atoms: _281  and  _282
REMARK  114  A    between atoms: _284  and  _286
REMARK  115  A    between atoms: _286  and  _287
REMARK  116  A    between atoms: _286  and  _289
REMARK                            x       y       z     vdW  Elec       q    Type
REMARK                         _______ _______ _______ _____ _____    ______ ____
ROOT
ATOM      1  C   GLN A   1     -10.212  42.942  31.505  0.00  0.00    +0.238 C 
ATOM      2  O   GLN A   1     -10.780  41.969  31.982  0.00  0.00    -0.274 OA
ATOM      3  N   HIS A   2      -9.345  42.840  30.481  0.00  0.00    -0.298 N 
ATOM      4  H   HIS A   2      -8.841  43.684  30.142  0.00  0.00    +0.150 HD
ENDROOT
BRANCH   1   5
ATOM      5  CA  GLN A   1     -10.547  44.329  32.032  0.00  0.00    +0.145 C 
BRANCH   5   6
ATOM      6  N   GLN A   1      -9.448  45.300  31.924  0.00  0.00    -0.238 NA
ATOM      7  H   GLN A   1      -9.367  45.920  31.093  0.00  0.00    +0.142 HD
ENDBRANCH   5   6
BRANCH   5   8
ATOM      8  CB  GLN A   1     -11.783  44.747  31.194  0.00  0.00    +0.036 C 
BRANCH   8   9
ATOM      9  CG  GLN A   1     -12.487  46.040  31.658  0.00  0.00    +0.087 C 
BRANCH   9  10
ATOM     10  CD  GLN A   1     -13.716  46.410  30.832  0.00  0.00    +0.219 C 
ATOM     11  OE1 GLN A   1     -14.836  46.511  31.351  0.00  0.00    -0.275 OA
ATOM     12  NE2 GLN A   1     -13.533  46.634  29.542  0.00  0.00    -0.329 N 
ATOM     13 HE21 GLN A   1     -12.583  46.543  29.128  0.00  0.00    +0.145 HD
ATOM     14 HE22 GLN A   1     -14.339  46.901  28.941  0.00  0.00    +0.145 HD
ENDBRANCH   9  10
ENDBRANCH   8   9
ENDBRANCH   5   8
ENDBRANCH   1   5
BRANCH   3  15
ATOM     15  CA  HIS A   2      -9.109  41.542  29.841  0.00  0.00    +0.143 C 
BRANCH  15  16
ATOM     16  C   HIS A   2      -7.734  40.867  29.891  0.00  0.00    +0.227 C 
ATOM     17  O   HIS A   2      -7.623  39.701  29.453  0.00  0.00    -0.286 OA
ENDBRANCH  15  16
BRANCH  15  18
ATOM     18  CB  HIS A   2      -9.549  41.710  28.358  0.00  0.00    +0.075 C 
BRANCH  18  19
ATOM     19  CG  HIS A   2     -10.960  42.176  28.172  0.00  0.00    +0.082 A 
ATOM     20  ND1 HIS A   2     -12.047  41.436  28.680  0.00  0.00    -0.227 NA
ATOM     21  CE1 HIS A   2     -13.148  42.127  28.365  0.00  0.00    +0.199 A 
ATOM     22  NE2 HIS A   2     -12.823  43.227  27.669  0.00  0.00    -0.221 NA
ATOM     23  CD2 HIS A   2     -11.448  43.300  27.537  0.00  0.00    +0.115 A 
ENDBRANCH  18  19
ENDBRANCH  15  18
ENDBRANCH   3  15
TORSDOF 9
REMARK  Name = ../refined-set-2016/4rsk/4rsk_pocket.pdb
REMARK  116 active torsions:
REMARK  status: ('A' for Active; 'I' for Inactive)
REMARK    1  A    between atoms: _1  and  _3
REMARK    2  A    between atoms: _3  and  _4
REMARK    3  A    between atoms: _7  and  _9
REMARK    4  A    between atoms: _9  and  _10
REMARK    5  A    between atoms: _13  and  _15
REMARK    6  A    between atoms: _15  and  _16
REMARK    7  A    between atoms: _15  and  _18
REMARK    8  A    between atoms: _18  and  _19
REMARK    9  A    between atoms: _25  and  _27
REMARK   10  A    between atoms: _27  and  _28
REMARK   11  A    between atoms: _27  and  _30
REMARK   12  A    between atoms: _30  and  _31
REMARK   13  A    between atoms: _31  and  _32
REMARK   14  A    between atoms: _37  and  _39
REMARK   15  A    between atoms: _39  and  _40
REMARK   16  A    between atoms: _39  and  _42
REMARK   17  A    between atoms: _42  and  _43
REMARK   18  A    between atoms: _48  and  _50
REMARK   19  A    between atoms: _50  and  _51
REMARK   20  A    between atoms: _50  and  _53
REMARK   21  A    between atoms: _53  and  _54
REMARK   22  A    between atoms: _54  and  _55
REMARK   23  A    between atoms: _57  and  _59
REMARK   24  A    between atoms: _59  and  _60
REMARK   25  A    between atoms: _59  and  _62
REMARK   26  A    between atoms: _62  and  _63
REMARK   27  A    between atoms: _66  and  _68
REMARK   28  A    between atoms: _68  and  _69
REMARK   29  A    between atoms: _68  and  _71
REMARK   30  A    between atoms: _71  and  _72
REMARK   31  A    between atoms: _72  and  _73
REMARK   32  A    between atoms: _73  and  _74
REMARK   33  A    between atoms: _83  and  _85
REMARK   34  A    between atoms: _85  and  _86
REMARK   35  A    between atoms: _85  and  _88
REMARK   36  A    between atoms: _88  and  _89
REMARK   37  A    between atoms: _89  and  _90
REMARK   38  A    between atoms: _90  and  _91
REMARK   39  A    between atoms: _91  and  _92
REMARK   40  A    between atoms: _97  and  _98
REMARK   41  A    between atoms: _103  and  _105
REMARK   42  A    between atoms: _105  and  _106
REMARK   43  A    between atoms: _105  and  _108
REMARK   44  A    between atoms: _111  and  _113
REMARK   45  A    between atoms: _113  and  _114
REMARK   46  A    between atoms: _113  and  _116
REMARK   47  A    between atoms: _116  and  _117
REMARK   48  A    between atoms: _122  and  _124
REMARK   49  A    between atoms: _124  and  _125
REMARK   50  A    between atoms: _124  and  _127
REMARK   51  A    between atoms: _127  and  _128
REMARK   52  A    between atoms: _131  and  _133
REMARK   53  A    between atoms: _133  and  _134
REMARK   54  A    between atoms: _133  and  _136
REMARK   55  A    between atoms: _136  and  _137
REMARK   56  A    between atoms: _143  and  _145
REMARK   57  A    between atoms: _145  and  _146
REMARK   58  A    between atoms: _145  and  _148
REMARK   59  A    between atoms: _148  and  _149
REMARK   60  A    between atoms: _152  and  _154
REMARK   61  A    between atoms: _154  and  _155
REMARK   62  A    between atoms: _154  and  _157
REMARK   63  A    between atoms: _157  and  _158
REMARK   64  A    between atoms: _161  and  _163
REMARK   65  A    between atoms: _163  and  _164
REMARK   66  A    between atoms: _163  and  _166
REMARK   67  A    between atoms: _166  and  _167
REMARK   68  A    between atoms: _170  and  _172
REMARK   69  A    between atoms: _172  and  _173
REMARK   70  A    between atoms: _172  and  _175
REMARK   71  A    between atoms: _177  and  _179
REMARK   72  A    between atoms: _179  and  _180
REMARK   73  A    between atoms: _179  and  _182
REMARK   74  A    between atoms: _182  and  _183
REMARK   75  A    between atoms: _183  and  _184
REMARK   76  A    between atoms: _184  and  _185
REMARK   77  A    between atoms: _194  and  _196
REMARK   78  A    between atoms: _196  and  _197
REMARK   79  A    between atoms: _196  and  _199
REMARK   80  A    between atoms: _199  and  _200
REMARK   81  A    between atoms: _200  and  _201
REMARK   82  A    between atoms: _201  and  _202
REMARK   83  A    between atoms: _202  and  _203
REMARK   84  A    between atoms: _207  and  _209
REMARK   85  A    between atoms: _209  and  _210
REMARK   86  A    between atoms: _209  and  _212
REMARK   87  A    between atoms: _212  and  _213
REMARK   88  A    between atoms: _216  and  _218
REMARK   89  A    between atoms: _218  and  _219
REMARK   90  A    between atoms: _218  and  _221
REMARK   91  A    between atoms: _224  and  _226
REMARK   92  A    between atoms: _226  and  _227
REMARK   93  A    between atoms: _230  and  _232
REMARK   94  A    between atoms: _232  and  _233
REMARK   95  A    between atoms: _232  and  _235
REMARK   96  A    between atoms: _238  and  _240
REMARK   97  A    between atoms: _240  and  _241
REMARK   98  A    between atoms: _240  and  _243
REMARK   99  A    between atoms: _243  and  _244
REMARK  100  A    between atoms: _249  and  _251
REMARK  101  A    between atoms: _251  and  _252
REMARK  102  A    between atoms: _251  and  _254
REMARK  103  A    between atoms: _254  and  _255
REMARK  104  A    between atoms: _261  and  _263
REMARK  105  A    between atoms: _263  and  _264
REMARK  106  A    between atoms: _263  and  _266
REMARK  107  A    between atoms: _266  and  _267
REMARK  108  A    between atoms: _270  and  _272
REMARK  109  A    between atoms: _272  and  _273
REMARK  110  A    between atoms: _276  and  _278
REMARK  111  A    between atoms: _278  and  _279
REMARK  112  A    between atoms: _278  and  _281
REMARK  113  A    between atoms: _281  and  _282
REMARK  114  A    between atoms: _284  and  _286
REMARK  115  A    between atoms: _286  and  _287
REMARK  116  A    between atoms: _286  and  _289
REMARK                            x       y       z     vdW  Elec       q    Type
REMARK                         _______ _______ _______ _____ _____    ______ ____
ROOT
ATOM      1  CA  MET A   1     -13.755  40.247  39.036  0.00  0.00    +0.134 C 
ENDROOT
BRANCH   1   2
ATOM      2  N   MET A   1     -12.790  39.187  39.310  0.00  0.00    -0.239 NA
ATOM      3  H   MET A   1     -13.105  38.207  39.457  0.00  0.00    +0.142 HD
ENDBRANCH   1   2
BRANCH   1   4
ATOM      4  C   MET A   1     -13.721  41.313  40.121  0.00  0.00    +0.224 C 
ATOM      5  O   MET A   1     -13.989  42.502  39.900  0.00  0.00    -0.287 OA
ENDBRANCH   1   4
BRANCH   1   6
ATOM      6  CB  MET A   1     -15.189  39.694  38.832  0.00  0.00    +0.037 C 
BRANCH   6   7
ATOM      7  CG  MET A   1     -15.278  38.673  37.698  0.00  0.00    +0.059 C 
BRANCH   7   8
ATOM      8  SD  MET A   1     -15.186  39.508  36.098  0.00  0.00    -0.139 S 
ATOM      9  CE  MET A   1     -16.672  40.565  36.041  0.00  0.00    +0.069 C 
ENDBRANCH   7   8
ENDBRANCH   6   7
ENDBRANCH   1   6
TORSDOF 5
REMARK  Name = ../refined-set-2016/4rsk/4rsk_pocket.pdb
REMARK  116 active torsions:
REMARK  status: ('A' for Active; 'I' for Inactive)
REMARK    1  A    between atoms: _1  and  _3
REMARK    2  A    between atoms: _3  and  _4
REMARK    3  A    between atoms: _7  and  _9
REMARK    4  A    between atoms: _9  and  _10
REMARK    5  A    between atoms: _13  and  _15
REMARK    6  A    between atoms: _15  and  _16
REMARK    7  A    between atoms: _15  and  _18
REMARK    8  A    between atoms: _18  and  _19
REMARK    9  A    between atoms: _25  and  _27
REMARK   10  A    between atoms: _27  and  _28
REMARK   11  A    between atoms: _27  and  _30
REMARK   12  A    between atoms: _30  and  _31
REMARK   13  A    between atoms: _31  and  _32
REMARK   14  A    between atoms: _37  and  _39
REMARK   15  A    between atoms: _39  and  _40
REMARK   16  A    between atoms: _39  and  _42
REMARK   17  A    between atoms: _42  and  _43
REMARK   18  A    between atoms: _48  and  _50
REMARK   19  A    between atoms: _50  and  _51
REMARK   20  A    between atoms: _50  and  _53
REMARK   21  A    between atoms: _53  and  _54
REMARK   22  A    between atoms: _54  and  _55
REMARK   23  A    between atoms: _57  and  _59
REMARK   24  A    between atoms: _59  and  _60
REMARK   25  A    between atoms: _59  and  _62
REMARK   26  A    between atoms: _62  and  _63
REMARK   27  A    between atoms: _66  and  _68
REMARK   28  A    between atoms: _68  and  _69
REMARK   29  A    between atoms: _68  and  _71
REMARK   30  A    between atoms: _71  and  _72
REMARK   31  A    between atoms: _72  and  _73
REMARK   32  A    between atoms: _73  and  _74
REMARK   33  A    between atoms: _83  and  _85
REMARK   34  A    between atoms: _85  and  _86
REMARK   35  A    between atoms: _85  and  _88
REMARK   36  A    between atoms: _88  and  _89
REMARK   37  A    between atoms: _89  and  _90
REMARK   38  A    between atoms: _90  and  _91
REMARK   39  A    between atoms: _91  and  _92
REMARK   40  A    between atoms: _97  and  _98
REMARK   41  A    between atoms: _103  and  _105
REMARK   42  A    between atoms: _105  and  _106
REMARK   43  A    between atoms: _105  and  _108
REMARK   44  A    between atoms: _111  and  _113
REMARK   45  A    between atoms: _113  and  _114
REMARK   46  A    between atoms: _113  and  _116
REMARK   47  A    between atoms: _116  and  _117
REMARK   48  A    between atoms: _122  and  _124
REMARK   49  A    between atoms: _124  and  _125
REMARK   50  A    between atoms: _124  and  _127
REMARK   51  A    between atoms: _127  and  _128
REMARK   52  A    between atoms: _131  and  _133
REMARK   53  A    between atoms: _133  and  _134
REMARK   54  A    between atoms: _133  and  _136
REMARK   55  A    between atoms: _136  and  _137
REMARK   56  A    between atoms: _143  and  _145
REMARK   57  A    between atoms: _145  and  _146
REMARK   58  A    between atoms: _145  and  _148
REMARK   59  A    between atoms: _148  and  _149
REMARK   60  A    between atoms: _152  and  _154
REMARK   61  A    between atoms: _154  and  _155
REMARK   62  A    between atoms: _154  and  _157
REMARK   63  A    between atoms: _157  and  _158
REMARK   64  A    between atoms: _161  and  _163
REMARK   65  A    between atoms: _163  and  _164
REMARK   66  A    between atoms: _163  and  _166
REMARK   67  A    between atoms: _166  and  _167
REMARK   68  A    between atoms: _170  and  _172
REMARK   69  A    between atoms: _172  and  _173
REMARK   70  A    between atoms: _172  and  _175
REMARK   71  A    between atoms: _177  and  _179
REMARK   72  A    between atoms: _179  and  _180
REMARK   73  A    between atoms: _179  and  _182
REMARK   74  A    between atoms: _182  and  _183
REMARK   75  A    between atoms: _183  and  _184
REMARK   76  A    between atoms: _184  and  _185
REMARK   77  A    between atoms: _194  and  _196
REMARK   78  A    between atoms: _196  and  _197
REMARK   79  A    between atoms: _196  and  _199
REMARK   80  A    between atoms: _199  and  _200
REMARK   81  A    between atoms: _200  and  _201
REMARK   82  A    between atoms: _201  and  _202
REMARK   83  A    between atoms: _202  and  _203
REMARK   84  A    between atoms: _207  and  _209
REMARK   85  A    between atoms: _209  and  _210
REMARK   86  A    between atoms: _209  and  _212
REMARK   87  A    between atoms: _212  and  _213
REMARK   88  A    between atoms: _216  and  _218
REMARK   89  A    between atoms: _218  and  _219
REMARK   90  A    between atoms: _218  and  _221
REMARK   91  A    between atoms: _224  and  _226
REMARK   92  A    between atoms: _226  and  _227
REMARK   93  A    between atoms: _230  and  _232
REMARK   94  A    between atoms: _232  and  _233
REMARK   95  A    between atoms: _232  and  _235
REMARK   96  A    between atoms: _238  and  _240
REMARK   97  A    between atoms: _240  and  _241
REMARK   98  A    between atoms: _240  and  _243
REMARK   99  A    between atoms: _243  and  _244
REMARK  100  A    between atoms: _249  and  _251
REMARK  101  A    between atoms: _251  and  _252
REMARK  102  A    between atoms: _251  and  _254
REMARK  103  A    between atoms: _254  and  _255
REMARK  104  A    between atoms: _261  and  _263
REMARK  105  A    between atoms: _263  and  _264
REMARK  106  A    between atoms: _263  and  _266
REMARK  107  A    between atoms: _266  and  _267
REMARK  108  A    between atoms: _270  and  _272
REMARK  109  A    between atoms: _272  and  _273
REMARK  110  A    between atoms: _276  and  _278
REMARK  111  A    between atoms: _278  and  _279
REMARK  112  A    between atoms: _278  and  _281
REMARK  113  A    between atoms: _281  and  _282
REMARK  114  A    between atoms: _284  and  _286
REMARK  115  A    between atoms: _286  and  _287
REMARK  116  A    between atoms: _286  and  _289
REMARK                            x       y       z     vdW  Elec       q    Type
REMARK                         _______ _______ _______ _____ _____    ______ ____
ROOT
ATOM      1  CA  LEU A   1     -15.562  44.970  38.151  0.00  0.00    +0.133 C 
ENDROOT
BRANCH   1   2
ATOM      2  N   LEU A   1     -14.444  45.126  39.065  0.00  0.00    -0.239 NA
ATOM      3  H   LEU A   1     -13.920  44.287  39.387  0.00  0.00    +0.142 HD
ENDBRANCH   1   2
BRANCH   1   4
ATOM      4  C   LEU A   1     -16.916  44.767  38.854  0.00  0.00    +0.224 C 
ATOM      5  O   LEU A   1     -17.970  44.738  38.220  0.00  0.00    -0.287 OA
ENDBRANCH   1   4
BRANCH   1   6
ATOM      6  CB  LEU A   1     -15.273  43.894  37.056  0.00  0.00    +0.025 C 
BRANCH   6   7
ATOM      7  CG  LEU A   1     -13.928  44.114  36.339  0.00  0.00    +0.002 C 
ATOM      8  CD2 LEU A   1     -13.948  45.439  35.592  0.00  0.00    +0.000 C 
ATOM      9  CD1 LEU A   1     -13.583  42.999  35.352  0.00  0.00    +0.000 C 
ENDBRANCH   6   7
ENDBRANCH   1   6
TORSDOF 4
REMARK  Name = ../refined-set-2016/4rsk/4rsk_pocket.pdb
REMARK  116 active torsions:
REMARK  status: ('A' for Active; 'I' for Inactive)
REMARK    1  A    between atoms: _1  and  _3
REMARK    2  A    between atoms: _3  and  _4
REMARK    3  A    between atoms: _7  and  _9
REMARK    4  A    between atoms: _9  and  _10
REMARK    5  A    between atoms: _13  and  _15
REMARK    6  A    between atoms: _15  and  _16
REMARK    7  A    between atoms: _15  and  _18
REMARK    8  A    between atoms: _18  and  _19
REMARK    9  A    between atoms: _25  and  _27
REMARK   10  A    between atoms: _27  and  _28
REMARK   11  A    between atoms: _27  and  _30
REMARK   12  A    between atoms: _30  and  _31
REMARK   13  A    between atoms: _31  and  _32
REMARK   14  A    between atoms: _37  and  _39
REMARK   15  A    between atoms: _39  and  _40
REMARK   16  A    between atoms: _39  and  _42
REMARK   17  A    between atoms: _42  and  _43
REMARK   18  A    between atoms: _48  and  _50
REMARK   19  A    between atoms: _50  and  _51
REMARK   20  A    between atoms: _50  and  _53
REMARK   21  A    between atoms: _53  and  _54
REMARK   22  A    between atoms: _54  and  _55
REMARK   23  A    between atoms: _57  and  _59
REMARK   24  A    between atoms: _59  and  _60
REMARK   25  A    between atoms: _59  and  _62
REMARK   26  A    between atoms: _62  and  _63
REMARK   27  A    between atoms: _66  and  _68
REMARK   28  A    between atoms: _68  and  _69
REMARK   29  A    between atoms: _68  and  _71
REMARK   30  A    between atoms: _71  and  _72
REMARK   31  A    between atoms: _72  and  _73
REMARK   32  A    between atoms: _73  and  _74
REMARK   33  A    between atoms: _83  and  _85
REMARK   34  A    between atoms: _85  and  _86
REMARK   35  A    between atoms: _85  and  _88
REMARK   36  A    between atoms: _88  and  _89
REMARK   37  A    between atoms: _89  and  _90
REMARK   38  A    between atoms: _90  and  _91
REMARK   39  A    between atoms: _91  and  _92
REMARK   40  A    between atoms: _97  and  _98
REMARK   41  A    between atoms: _103  and  _105
REMARK   42  A    between atoms: _105  and  _106
REMARK   43  A    between atoms: _105  and  _108
REMARK   44  A    between atoms: _111  and  _113
REMARK   45  A    between atoms: _113  and  _114
REMARK   46  A    between atoms: _113  and  _116
REMARK   47  A    between atoms: _116  and  _117
REMARK   48  A    between atoms: _122  and  _124
REMARK   49  A    between atoms: _124  and  _125
REMARK   50  A    between atoms: _124  and  _127
REMARK   51  A    between atoms: _127  and  _128
REMARK   52  A    between atoms: _131  and  _133
REMARK   53  A    between atoms: _133  and  _134
REMARK   54  A    between atoms: _133  and  _136
REMARK   55  A    between atoms: _136  and  _137
REMARK   56  A    between atoms: _143  and  _145
REMARK   57  A    between atoms: _145  and  _146
REMARK   58  A    between atoms: _145  and  _148
REMARK   59  A    between atoms: _148  and  _149
REMARK   60  A    between atoms: _152  and  _154
REMARK   61  A    between atoms: _154  and  _155
REMARK   62  A    between atoms: _154  and  _157
REMARK   63  A    between atoms: _157  and  _158
REMARK   64  A    between atoms: _161  and  _163
REMARK   65  A    between atoms: _163  and  _164
REMARK   66  A    between atoms: _163  and  _166
REMARK   67  A    between atoms: _166  and  _167
REMARK   68  A    between atoms: _170  and  _172
REMARK   69  A    between atoms: _172  and  _173
REMARK   70  A    between atoms: _172  and  _175
REMARK   71  A    between atoms: _177  and  _179
REMARK   72  A    between atoms: _179  and  _180
REMARK   73  A    between atoms: _179  and  _182
REMARK   74  A    between atoms: _182  and  _183
REMARK   75  A    between atoms: _183  and  _184
REMARK   76  A    between atoms: _184  and  _185
REMARK   77  A    between atoms: _194  and  _196
REMARK   78  A    between atoms: _196  and  _197
REMARK   79  A    between atoms: _196  and  _199
REMARK   80  A    between atoms: _199  and  _200
REMARK   81  A    between atoms: _200  and  _201
REMARK   82  A    between atoms: _201  and  _202
REMARK   83  A    between atoms: _202  and  _203
REMARK   84  A    between atoms: _207  and  _209
REMARK   85  A    between atoms: _209  and  _210
REMARK   86  A    between atoms: _209  and  _212
REMARK   87  A    between atoms: _212  and  _213
REMARK   88  A    between atoms: _216  and  _218
REMARK   89  A    between atoms: _218  and  _219
REMARK   90  A    between atoms: _218  and  _221
REMARK   91  A    between atoms: _224  and  _226
REMARK   92  A    between atoms: _226  and  _227
REMARK   93  A    between atoms: _230  and  _232
REMARK   94  A    between atoms: _232  and  _233
REMARK   95  A    between atoms: _232  and  _235
REMARK   96  A    between atoms: _238  and  _240
REMARK   97  A    between atoms: _240  and  _241
REMARK   98  A    between atoms: _240  and  _243
REMARK   99  A    between atoms: _243  and  _244
REMARK  100  A    between atoms: _249  and  _251
REMARK  101  A    between atoms: _251  and  _252
REMARK  102  A    between atoms: _251  and  _254
REMARK  103  A    between atoms: _254  and  _255
REMARK  104  A    between atoms: _261  and  _263
REMARK  105  A    between atoms: _263  and  _264
REMARK  106  A    between atoms: _263  and  _266
REMARK  107  A    between atoms: _266  and  _267
REMARK  108  A    between atoms: _270  and  _272
REMARK  109  A    between atoms: _272  and  _273
REMARK  110  A    between atoms: _276  and  _278
REMARK  111  A    between atoms: _278  and  _279
REMARK  112  A    between atoms: _278  and  _281
REMARK  113  A    between atoms: _281  and  _282
REMARK  114  A    between atoms: _284  and  _286
REMARK  115  A    between atoms: _286  and  _287
REMARK  116  A    between atoms: _286  and  _289
REMARK                            x       y       z     vdW  Elec       q    Type
REMARK                         _______ _______ _______ _____ _____    ______ ____
ROOT
ATOM      1  NE  ARG A   1     -22.791  46.844  35.233  0.00  0.00    -0.265 N 
ATOM      2  HE  ARG A   1     -21.781  47.080  35.306  0.00  0.00    +0.259 HD
ATOM      3  CZ  ARG A   1     -23.203  46.202  34.116  0.00  0.00    +0.342 C 
ATOM      4  NH2 ARG A   1     -24.485  45.833  33.912  0.00  0.00    -0.292 N 
ATOM      5 HH21 ARG A   1     -25.207  46.041  34.632  0.00  0.00    +0.255 HD
ATOM      6 HH22 ARG A   1     -24.751  45.341  33.035  0.00  0.00    +0.255 HD
ATOM      7  NH1 ARG A   1     -22.281  45.933  33.179  0.00  0.00    -0.292 N 
ATOM      8 HH11 ARG A   1     -21.291  46.217  33.327  0.00  0.00    +0.255 HD
ATOM      9 HH12 ARG A   1     -22.556  45.441  32.305  0.00  0.00    +0.255 HD
ENDROOT
BRANCH   1  10
ATOM     10  CD  ARG A   1     -23.660  47.233  36.349  0.00  0.00    +0.174 C 
BRANCH  10  11
ATOM     11  CG  ARG A   1     -22.944  47.440  37.667  0.00  0.00    +0.045 C 
BRANCH  11  12
ATOM     12  CB  ARG A   1     -23.790  46.900  38.803  0.00  0.00    +0.029 C 
BRANCH  12  13
ATOM     13  CA  ARG A   1     -22.954  46.461  39.997  0.00  0.00    +0.133 C 
BRANCH  13  14
ATOM     14  N   ARG A   1     -21.955  47.445  40.366  0.00  0.00    -0.239 NA
ATOM     15  H   ARG A   1     -20.962  47.268  40.113  0.00  0.00    +0.142 HD
ENDBRANCH  13  14
BRANCH  13  16
ATOM     16  C   ARG A   1     -22.219  45.182  39.682  0.00  0.00    +0.224 C 
ATOM     17  O   ARG A   1     -20.987  45.137  39.768  0.00  0.00    -0.287 OA
ENDBRANCH  13  16
ENDBRANCH  12  13
ENDBRANCH  11  12
ENDBRANCH  10  11
ENDBRANCH   1  10
TORSDOF 6
REMARK  Name = ../refined-set-2016/4rsk/4rsk_pocket.pdb
REMARK  116 active torsions:
REMARK  status: ('A' for Active; 'I' for Inactive)
REMARK    1  A    between atoms: _1  and  _3
REMARK    2  A    between atoms: _3  and  _4
REMARK    3  A    between atoms: _7  and  _9
REMARK    4  A    between atoms: _9  and  _10
REMARK    5  A    between atoms: _13  and  _15
REMARK    6  A    between atoms: _15  and  _16
REMARK    7  A    between atoms: _15  and  _18
REMARK    8  A    between atoms: _18  and  _19
REMARK    9  A    between atoms: _25  and  _27
REMARK   10  A    between atoms: _27  and  _28
REMARK   11  A    between atoms: _27  and  _30
REMARK   12  A    between atoms: _30  and  _31
REMARK   13  A    between atoms: _31  and  _32
REMARK   14  A    between atoms: _37  and  _39
REMARK   15  A    between atoms: _39  and  _40
REMARK   16  A    between atoms: _39  and  _42
REMARK   17  A    between atoms: _42  and  _43
REMARK   18  A    between atoms: _48  and  _50
REMARK   19  A    between atoms: _50  and  _51
REMARK   20  A    between atoms: _50  and  _53
REMARK   21  A    between atoms: _53  and  _54
REMARK   22  A    between atoms: _54  and  _55
REMARK   23  A    between atoms: _57  and  _59
REMARK   24  A    between atoms: _59  and  _60
REMARK   25  A    between atoms: _59  and  _62
REMARK   26  A    between atoms: _62  and  _63
REMARK   27  A    between atoms: _66  and  _68
REMARK   28  A    between atoms: _68  and  _69
REMARK   29  A    between atoms: _68  and  _71
REMARK   30  A    between atoms: _71  and  _72
REMARK   31  A    between atoms: _72  and  _73
REMARK   32  A    between atoms: _73  and  _74
REMARK   33  A    between atoms: _83  and  _85
REMARK   34  A    between atoms: _85  and  _86
REMARK   35  A    between atoms: _85  and  _88
REMARK   36  A    between atoms: _88  and  _89
REMARK   37  A    between atoms: _89  and  _90
REMARK   38  A    between atoms: _90  and  _91
REMARK   39  A    between atoms: _91  and  _92
REMARK   40  A    between atoms: _97  and  _98
REMARK   41  A    between atoms: _103  and  _105
REMARK   42  A    between atoms: _105  and  _106
REMARK   43  A    between atoms: _105  and  _108
REMARK   44  A    between atoms: _111  and  _113
REMARK   45  A    between atoms: _113  and  _114
REMARK   46  A    between atoms: _113  and  _116
REMARK   47  A    between atoms: _116  and  _117
REMARK   48  A    between atoms: _122  and  _124
REMARK   49  A    between atoms: _124  and  _125
REMARK   50  A    between atoms: _124  and  _127
REMARK   51  A    between atoms: _127  and  _128
REMARK   52  A    between atoms: _131  and  _133
REMARK   53  A    between atoms: _133  and  _134
REMARK   54  A    between atoms: _133  and  _136
REMARK   55  A    between atoms: _136  and  _137
REMARK   56  A    between atoms: _143  and  _145
REMARK   57  A    between atoms: _145  and  _146
REMARK   58  A    between atoms: _145  and  _148
REMARK   59  A    between atoms: _148  and  _149
REMARK   60  A    between atoms: _152  and  _154
REMARK   61  A    between atoms: _154  and  _155
REMARK   62  A    between atoms: _154  and  _157
REMARK   63  A    between atoms: _157  and  _158
REMARK   64  A    between atoms: _161  and  _163
REMARK   65  A    between atoms: _163  and  _164
REMARK   66  A    between atoms: _163  and  _166
REMARK   67  A    between atoms: _166  and  _167
REMARK   68  A    between atoms: _170  and  _172
REMARK   69  A    between atoms: _172  and  _173
REMARK   70  A    between atoms: _172  and  _175
REMARK   71  A    between atoms: _177  and  _179
REMARK   72  A    between atoms: _179  and  _180
REMARK   73  A    between atoms: _179  and  _182
REMARK   74  A    between atoms: _182  and  _183
REMARK   75  A    between atoms: _183  and  _184
REMARK   76  A    between atoms: _184  and  _185
REMARK   77  A    between atoms: _194  and  _196
REMARK   78  A    between atoms: _196  and  _197
REMARK   79  A    between atoms: _196  and  _199
REMARK   80  A    between atoms: _199  and  _200
REMARK   81  A    between atoms: _200  and  _201
REMARK   82  A    between atoms: _201  and  _202
REMARK   83  A    between atoms: _202  and  _203
REMARK   84  A    between atoms: _207  and  _209
REMARK   85  A    between atoms: _209  and  _210
REMARK   86  A    between atoms: _209  and  _212
REMARK   87  A    between atoms: _212  and  _213
REMARK   88  A    between atoms: _216  and  _218
REMARK   89  A    between atoms: _218  and  _219
REMARK   90  A    between atoms: _218  and  _221
REMARK   91  A    between atoms: _224  and  _226
REMARK   92  A    between atoms: _226  and  _227
REMARK   93  A    between atoms: _230  and  _232
REMARK   94  A    between atoms: _232  and  _233
REMARK   95  A    between atoms: _232  and  _235
REMARK   96  A    between atoms: _238  and  _240
REMARK   97  A    between atoms: _240  and  _241
REMARK   98  A    between atoms: _240  and  _243
REMARK   99  A    between atoms: _243  and  _244
REMARK  100  A    between atoms: _249  and  _251
REMARK  101  A    between atoms: _251  and  _252
REMARK  102  A    between atoms: _251  and  _254
REMARK  103  A    between atoms: _254  and  _255
REMARK  104  A    between atoms: _261  and  _263
REMARK  105  A    between atoms: _263  and  _264
REMARK  106  A    between atoms: _263  and  _266
REMARK  107  A    between atoms: _266  and  _267
REMARK  108  A    between atoms: _270  and  _272
REMARK  109  A    between atoms: _272  and  _273
REMARK  110  A    between atoms: _276  and  _278
REMARK  111  A    between atoms: _278  and  _279
REMARK  112  A    between atoms: _278  and  _281
REMARK  113  A    between atoms: _281  and  _282
REMARK  114  A    between atoms: _284  and  _286
REMARK  115  A    between atoms: _286  and  _287
REMARK  116  A    between atoms: _286  and  _289
REMARK                            x       y       z     vdW  Elec       q    Type
REMARK                         _______ _______ _______ _____ _____    ______ ____
ROOT
ATOM      1  C   VAL A   3     -18.570  39.290  31.248  0.00  0.00    +0.241 C 
ATOM      2  N   ASN A   4     -17.474  38.518  31.388  0.00  0.00    -0.297 N 
ATOM      3  H   ASN A   4     -17.591  37.523  31.668  0.00  0.00    +0.150 HD
ATOM      4  O   VAL A   3     -18.517  40.459  30.926  0.00  0.00    -0.273 OA
ENDROOT
BRANCH   2   5
ATOM      5  CA  ASN A   4     -16.111  39.040  31.156  0.00  0.00    +0.158 C 
BRANCH   5   6
ATOM      6  C   ASN A   4     -15.106  37.945  30.834  0.00  0.00    +0.241 C 
ATOM      7  O   ASN A   4     -15.132  36.909  31.484  0.00  0.00    -0.273 OA
ATOM      8  N   THR A   5     -14.204  38.181  29.871  0.00  0.00    -0.295 N 
ATOM      9  H   THR A   5     -14.234  39.092  29.370  0.00  0.00    +0.150 HD
BRANCH   8  10
ATOM     10  CA  THR A   5     -13.170  37.198  29.495  0.00  0.00    +0.176 C 
BRANCH  10  11
ATOM     11  C   THR A   5     -11.752  37.686  29.803  0.00  0.00    +0.243 C 
ATOM     12  N   PHE A   6     -10.895  36.817  30.398  0.00  0.00    -0.298 N 
ATOM     13  H   PHE A   6     -11.246  35.874  30.662  0.00  0.00    +0.150 HD
ATOM     14  O   THR A   5     -11.433  38.823  29.470  0.00  0.00    -0.273 OA
BRANCH  12  15
ATOM     15  CA  PHE A   6      -9.491  37.151  30.685  0.00  0.00    +0.141 C 
BRANCH  15  16
ATOM     16  C   PHE A   6      -8.598  36.322  29.777  0.00  0.00    +0.227 C 
ATOM     17  O   PHE A   6      -8.871  35.120  29.606  0.00  0.00    -0.286 OA
ENDBRANCH  15  16
BRANCH  15  18
ATOM     18  CB  PHE A   6      -9.122  36.776  32.140  0.00  0.00    +0.054 C 
BRANCH  18  19
ATOM     19  CG  PHE A   6      -9.733  37.748  33.122  0.00  0.00    -0.020 A 
ATOM     20  CD2 PHE A   6     -10.881  37.389  33.836  0.00  0.00    -0.004 A 
ATOM     21  CE2 PHE A   6     -11.481  38.256  34.757  0.00  0.00    -0.000 A 
ATOM     22  CZ  PHE A   6     -10.922  39.523  34.934  0.00  0.00    -0.000 A 
ATOM     23  CE1 PHE A   6      -9.783  39.914  34.218  0.00  0.00    -0.000 A 
ATOM     24  CD1 PHE A   6      -9.189  39.021  33.321  0.00  0.00    -0.004 A 
ENDBRANCH  18  19
ENDBRANCH  15  18
ENDBRANCH  12  15
ENDBRANCH  10  11
BRANCH  10  25
ATOM     25  CB  THR A   5     -13.265  36.853  27.972  0.00  0.00    +0.137 C 
ATOM     26  CG2 THR A   5     -12.450  35.618  27.551  0.00  0.00    +0.034 C 
BRANCH  25  27
ATOM     27  OG1 THR A   5     -14.616  36.605  27.627  0.00  0.00    -0.382 OA
ATOM     28  HG1 THR A   5     -14.957  35.844  28.160  0.00  0.00    +0.210 HD
ENDBRANCH  25  27
ENDBRANCH  10  25
ENDBRANCH   8  10
ENDBRANCH   5   6
BRANCH   5  29
ATOM     29  CB  ASN A   4     -15.572  39.838  32.355  0.00  0.00    +0.114 C 
BRANCH  29  30
ATOM     30  CG  ASN A   4     -14.405  40.776  32.014  0.00  0.00    +0.222 C 
ATOM     31  ND2 ASN A   4     -13.299  40.624  32.720  0.00  0.00    -0.329 N 
ATOM     32 HD21 ASN A   4     -13.247  39.889  33.454  0.00  0.00    +0.145 HD
ATOM     33 HD22 ASN A   4     -12.480  41.240  32.542  0.00  0.00    +0.145 HD
ATOM     34  OD1 ASN A   4     -14.464  41.654  31.139  0.00  0.00    -0.275 OA
ENDBRANCH  29  30
ENDBRANCH   5  29
ENDBRANCH   2   5
BRANCH   1  35
ATOM     35  CA  VAL A   3     -19.956  38.679  31.452  0.00  0.00    +0.149 C 
BRANCH  35  38
ATOM     36  C   PRO A   2     -21.620  39.024  33.186  0.00  0.00    +0.241 C 
ATOM     37  O   PRO A   2     -21.624  37.827  33.527  0.00  0.00    -0.273 OA
ATOM     38  N   VAL A   3     -20.872  39.526  32.213  0.00  0.00    -0.297 N 
ATOM     39  H   VAL A   3     -20.938  40.539  31.988  0.00  0.00    +0.150 HD
BRANCH  36  43
ATOM     40  C   LYS A   1     -21.147  41.513  35.128  0.00  0.00    +0.241 C 
ATOM     41  O   LYS A   1     -20.673  40.557  35.739  0.00  0.00    -0.273 OA
ATOM     42  N   PRO A   2     -22.049  41.308  34.190  0.00  0.00    -0.272 N 
ATOM     43  CA  PRO A   2     -22.544  39.996  33.865  0.00  0.00    +0.152 C 
ATOM     44  CB  PRO A   2     -23.816  40.183  33.016  0.00  0.00    +0.031 C 
ATOM     45  CG  PRO A   2     -23.919  41.650  32.679  0.00  0.00    +0.024 C 
ATOM     46  CD  PRO A   2     -22.892  42.357  33.568  0.00  0.00    +0.094 C 
BRANCH  40  47
ATOM     47  CA  LYS A   1     -20.771  42.992  35.483  0.00  0.00    +0.145 C 
BRANCH  47  48
ATOM     48  N   LYS A   1     -20.900  43.065  36.934  0.00  0.00    -0.238 NA
ATOM     49  H   LYS A   1     -20.067  43.230  37.534  0.00  0.00    +0.142 HD
ENDBRANCH  47  48
BRANCH  47  50
ATOM     50  CB  LYS A   1     -19.360  43.419  35.059  0.00  0.00    +0.026 C 
BRANCH  50  51
ATOM     51  CG  LYS A   1     -19.129  43.453  33.548  0.00  0.00    -0.000 C 
BRANCH  51  52
ATOM     52  CD  LYS A   1     -17.729  43.925  33.126  0.00  0.00    -0.024 C 
BRANCH  52  53
ATOM     53  CE  LYS A   1     -17.643  44.129  31.618  0.00  0.00    -0.086 C 
BRANCH  53  54
ATOM     54  NZ  LYS A   1     -16.285  43.999  31.113  0.00  0.00    +0.380 N 
ATOM     55  HZ1 LYS A   1     -15.678  44.711  31.567  0.00  0.00    -0.089 HD
ATOM     56  HZ2 LYS A   1     -15.926  43.047  31.328  0.00  0.00    -0.089 HD
ATOM     57  HZ3 LYS A   1     -16.284  44.147  30.084  0.00  0.00    -0.089 HD
ENDBRANCH  53  54
ENDBRANCH  52  53
ENDBRANCH  51  52
ENDBRANCH  50  51
ENDBRANCH  47  50
ENDBRANCH  40  47
ENDBRANCH  36  43
ENDBRANCH  35  38
BRANCH  35  58
ATOM     58  CB  VAL A   3     -20.590  38.518  30.077  0.00  0.00    +0.027 C 
ATOM     59  CG2 VAL A   3     -21.940  37.815  30.208  0.00  0.00    +0.002 C 
ATOM     60  CG1 VAL A   3     -19.667  37.732  29.160  0.00  0.00    +0.002 C 
ENDBRANCH  35  58
ENDBRANCH   1  35
TORSDOF 23
REMARK  Name = ../refined-set-2016/4rsk/4rsk_pocket.pdb
REMARK  116 active torsions:
REMARK  status: ('A' for Active; 'I' for Inactive)
REMARK    1  A    between atoms: _1  and  _3
REMARK    2  A    between atoms: _3  and  _4
REMARK    3  A    between atoms: _7  and  _9
REMARK    4  A    between atoms: _9  and  _10
REMARK    5  A    between atoms: _13  and  _15
REMARK    6  A    between atoms: _15  and  _16
REMARK    7  A    between atoms: _15  and  _18
REMARK    8  A    between atoms: _18  and  _19
REMARK    9  A    between atoms: _25  and  _27
REMARK   10  A    between atoms: _27  and  _28
REMARK   11  A    between atoms: _27  and  _30
REMARK   12  A    between atoms: _30  and  _31
REMARK   13  A    between atoms: _31  and  _32
REMARK   14  A    between atoms: _37  and  _39
REMARK   15  A    between atoms: _39  and  _40
REMARK   16  A    between atoms: _39  and  _42
REMARK   17  A    between atoms: _42  and  _43
REMARK   18  A    between atoms: _48  and  _50
REMARK   19  A    between atoms: _50  and  _51
REMARK   20  A    between atoms: _50  and  _53
REMARK   21  A    between atoms: _53  and  _54
REMARK   22  A    between atoms: _54  and  _55
REMARK   23  A    between atoms: _57  and  _59
REMARK   24  A    between atoms: _59  and  _60
REMARK   25  A    between atoms: _59  and  _62
REMARK   26  A    between atoms: _62  and  _63
REMARK   27  A    between atoms: _66  and  _68
REMARK   28  A    between atoms: _68  and  _69
REMARK   29  A    between atoms: _68  and  _71
REMARK   30  A    between atoms: _71  and  _72
REMARK   31  A    between atoms: _72  and  _73
REMARK   32  A    between atoms: _73  and  _74
REMARK   33  A    between atoms: _83  and  _85
REMARK   34  A    between atoms: _85  and  _86
REMARK   35  A    between atoms: _85  and  _88
REMARK   36  A    between atoms: _88  and  _89
REMARK   37  A    between atoms: _89  and  _90
REMARK   38  A    between atoms: _90  and  _91
REMARK   39  A    between atoms: _91  and  _92
REMARK   40  A    between atoms: _97  and  _98
REMARK   41  A    between atoms: _103  and  _105
REMARK   42  A    between atoms: _105  and  _106
REMARK   43  A    between atoms: _105  and  _108
REMARK   44  A    between atoms: _111  and  _113
REMARK   45  A    between atoms: _113  and  _114
REMARK   46  A    between atoms: _113  and  _116
REMARK   47  A    between atoms: _116  and  _117
REMARK   48  A    between atoms: _122  and  _124
REMARK   49  A    between atoms: _124  and  _125
REMARK   50  A    between atoms: _124  and  _127
REMARK   51  A    between atoms: _127  and  _128
REMARK   52  A    between atoms: _131  and  _133
REMARK   53  A    between atoms: _133  and  _134
REMARK   54  A    between atoms: _133  and  _136
REMARK   55  A    between atoms: _136  and  _137
REMARK   56  A    between atoms: _143  and  _145
REMARK   57  A    between atoms: _145  and  _146
REMARK   58  A    between atoms: _145  and  _148
REMARK   59  A    between atoms: _148  and  _149
REMARK   60  A    between atoms: _152  and  _154
REMARK   61  A    between atoms: _154  and  _155
REMARK   62  A    between atoms: _154  and  _157
REMARK   63  A    between atoms: _157  and  _158
REMARK   64  A    between atoms: _161  and  _163
REMARK   65  A    between atoms: _163  and  _164
REMARK   66  A    between atoms: _163  and  _166
REMARK   67  A    between atoms: _166  and  _167
REMARK   68  A    between atoms: _170  and  _172
REMARK   69  A    between atoms: _172  and  _173
REMARK   70  A    between atoms: _172  and  _175
REMARK   71  A    between atoms: _177  and  _179
REMARK   72  A    between atoms: _179  and  _180
REMARK   73  A    between atoms: _179  and  _182
REMARK   74  A    between atoms: _182  and  _183
REMARK   75  A    between atoms: _183  and  _184
REMARK   76  A    between atoms: _184  and  _185
REMARK   77  A    between atoms: _194  and  _196
REMARK   78  A    between atoms: _196  and  _197
REMARK   79  A    between atoms: _196  and  _199
REMARK   80  A    between atoms: _199  and  _200
REMARK   81  A    between atoms: _200  and  _201
REMARK   82  A    between atoms: _201  and  _202
REMARK   83  A    between atoms: _202  and  _203
REMARK   84  A    between atoms: _207  and  _209
REMARK   85  A    between atoms: _209  and  _210
REMARK   86  A    between atoms: _209  and  _212
REMARK   87  A    between atoms: _212  and  _213
REMARK   88  A    between atoms: _216  and  _218
REMARK   89  A    between atoms: _218  and  _219
REMARK   90  A    between atoms: _218  and  _221
REMARK   91  A    between atoms: _224  and  _226
REMARK   92  A    between atoms: _226  and  _227
REMARK   93  A    between atoms: _230  and  _232
REMARK   94  A    between atoms: _232  and  _233
REMARK   95  A    between atoms: _232  and  _235
REMARK   96  A    between atoms: _238  and  _240
REMARK   97  A    between atoms: _240  and  _241
REMARK   98  A    between atoms: _240  and  _243
REMARK   99  A    between atoms: _243  and  _244
REMARK  100  A    between atoms: _249  and  _251
REMARK  101  A    between atoms: _251  and  _252
REMARK  102  A    between atoms: _251  and  _254
REMARK  103  A    between atoms: _254  and  _255
REMARK  104  A    between atoms: _261  and  _263
REMARK  105  A    between atoms: _263  and  _264
REMARK  106  A    between atoms: _263  and  _266
REMARK  107  A    between atoms: _266  and  _267
REMARK  108  A    between atoms: _270  and  _272
REMARK  109  A    between atoms: _272  and  _273
REMARK  110  A    between atoms: _276  and  _278
REMARK  111  A    between atoms: _278  and  _279
REMARK  112  A    between atoms: _278  and  _281
REMARK  113  A    between atoms: _281  and  _282
REMARK  114  A    between atoms: _284  and  _286
REMARK  115  A    between atoms: _286  and  _287
REMARK  116  A    between atoms: _286  and  _289
REMARK                            x       y       z     vdW  Elec       q    Type
REMARK                         _______ _______ _______ _____ _____    ______ ____
ROOT
ATOM      1  C   ASP A   3     -15.401  33.049  32.008  0.00  0.00    +0.241 C 
ATOM      2  O   ASP A   3     -15.476  32.098  32.774  0.00  0.00    -0.273 OA
ATOM      3  N   CYS A   4     -15.916  34.225  32.335  0.00  0.00    -0.296 N 
ATOM      4  H   CYS A   4     -15.849  35.019  31.667  0.00  0.00    +0.150 HD
ENDROOT
BRANCH   3   5
ATOM      5  CA  CYS A   4     -16.576  34.419  33.621  0.00  0.00    +0.160 C 
BRANCH   5   6
ATOM      6  C   CYS A   4     -18.036  34.850  33.390  0.00  0.00    +0.242 C 
ATOM      7  N   ARG A   5     -18.992  34.139  33.968  0.00  0.00    -0.298 N 
ATOM      8  H   ARG A   5     -18.736  33.321  34.557  0.00  0.00    +0.150 HD
ATOM      9  O   CYS A   4     -18.314  35.801  32.680  0.00  0.00    -0.273 OA
BRANCH   7  10
ATOM     10  CA  ARG A   5     -20.392  34.484  33.793  0.00  0.00    +0.137 C 
BRANCH  10  11
ATOM     11  C   ARG A   5     -21.164  34.452  35.123  0.00  0.00    +0.227 C 
ATOM     12  O   ARG A   5     -21.047  33.519  35.924  0.00  0.00    -0.286 OA
ENDBRANCH  10  11
BRANCH  10  13
ATOM     13  CB  ARG A   5     -21.047  33.759  32.598  0.00  0.00    +0.031 C 
BRANCH  13  14
ATOM     14  CG  ARG A   5     -22.516  33.446  32.799  0.00  0.00    +0.045 C 
BRANCH  14  15
ATOM     15  CD  ARG A   5     -23.388  33.730  31.593  0.00  0.00    +0.174 C 
BRANCH  15  16
ATOM     16  NE  ARG A   5     -22.731  33.851  30.272  0.00  0.00    -0.265 N 
ATOM     17  HE  ARG A   5     -21.773  33.467  30.148  0.00  0.00    +0.259 HD
ATOM     18  CZ  ARG A   5     -23.345  34.451  29.215  0.00  0.00    +0.342 C 
ATOM     19  NH2 ARG A   5     -24.586  34.965  29.251  0.00  0.00    -0.292 N 
ATOM     20 HH21 ARG A   5     -25.143  34.919  30.128  0.00  0.00    +0.255 HD
ATOM     21 HH22 ARG A   5     -24.990  35.409  28.402  0.00  0.00    +0.255 HD
ATOM     22  NH1 ARG A   5     -22.728  34.560  28.049  0.00  0.00    -0.292 N 
ATOM     23 HH11 ARG A   5     -21.765  34.185  27.933  0.00  0.00    +0.255 HD
ATOM     24 HH12 ARG A   5     -23.207  35.020  27.248  0.00  0.00    +0.255 HD
ENDBRANCH  15  16
ENDBRANCH  14  15
ENDBRANCH  13  14
ENDBRANCH  10  13
ENDBRANCH   7  10
ENDBRANCH   5   6
BRANCH   5  25
ATOM     25  CB  CYS A   4     -15.868  35.501  34.460  0.00  0.00    +0.098 C 
ATOM     26  SG  CYS A   4     -14.155  35.149  34.934  0.00  0.00    -0.080 S 
ENDBRANCH   5  25
ENDBRANCH   3   5
BRANCH   1  27
ATOM     27  CA  ASP A   3     -14.728  32.926  30.637  0.00  0.00    +0.160 C 
BRANCH  27  30
ATOM     28  C   THR A   2     -12.258  32.878  30.884  0.00  0.00    +0.243 C 
ATOM     29  O   THR A   2     -12.154  34.097  30.948  0.00  0.00    -0.273 OA
ATOM     30  N   ASP A   3     -13.430  32.235  30.723  0.00  0.00    -0.296 N 
ATOM     31  H   ASP A   3     -13.418  31.197  30.656  0.00  0.00    +0.150 HD
BRANCH  28  32
ATOM     32  CA  THR A   2     -10.989  32.038  31.003  0.00  0.00    +0.176 C 
BRANCH  32  34
ATOM     33  C   ILE A   1      -9.444  31.421  29.190  0.00  0.00    +0.238 C 
ATOM     34  N   THR A   2     -10.063  32.380  29.920  0.00  0.00    -0.295 N 
ATOM     35  H   THR A   2      -9.877  33.381  29.707  0.00  0.00    +0.150 HD
ATOM     36  O   ILE A   1      -9.567  30.193  29.344  0.00  0.00    -0.274 OA
BRANCH  33  37
ATOM     37  CA  ILE A   1      -8.590  31.959  28.078  0.00  0.00    +0.145 C 
BRANCH  37  38
ATOM     38  N   ILE A   1      -7.681  30.951  27.483  0.00  0.00    -0.238 NA
ATOM     39  H   ILE A   1      -8.046  30.011  27.230  0.00  0.00    +0.142 HD
ENDBRANCH  37  38
BRANCH  37  40
ATOM     40  CB  ILE A   1      -9.582  32.536  27.055  0.00  0.00    +0.025 C 
ATOM     41  CG2 ILE A   1      -8.854  33.048  25.814  0.00  0.00    +0.002 C 
BRANCH  40  42
ATOM     42  CG1 ILE A   1     -10.613  31.484  26.635  0.00  0.00    +0.002 C 
ATOM     43  CD1 ILE A   1     -11.782  32.064  25.864  0.00  0.00    +0.000 C 
ENDBRANCH  40  42
ENDBRANCH  37  40
ENDBRANCH  33  37
ENDBRANCH  32  34
BRANCH  32  44
ATOM     44  CB  THR A   2     -10.413  32.192  32.441  0.00  0.00    +0.137 C 
ATOM     45  CG2 THR A   2     -11.409  31.679  33.496  0.00  0.00    +0.034 C 
BRANCH  44  46
ATOM     46  OG1 THR A   2      -9.183  31.498  32.594  0.00  0.00    -0.382 OA
ATOM     47  HG1 THR A   2      -9.325  30.534  32.417  0.00  0.00    +0.210 HD
ENDBRANCH  44  46
ENDBRANCH  32  44
ENDBRANCH  28  32
ENDBRANCH  27  30
BRANCH  27  48
ATOM     48  CB  ASP A   3     -15.726  32.224  29.670  0.00  0.00    +0.143 C 
BRANCH  48  49
ATOM     49  CG  ASP A   3     -15.502  32.692  28.249  0.00  0.00    +0.367 C 
ATOM     50  OD2 ASP A   3     -15.635  33.847  27.921  0.00  0.00    -0.246 OA
ATOM     51  OD1 ASP A   3     -15.137  31.760  27.401  0.00  0.00    -0.246 OA
ENDBRANCH  48  49
ENDBRANCH  27  48
ENDBRANCH   1  27
TORSDOF 21
REMARK  Name = ../refined-set-2016/4rsk/4rsk_pocket.pdb
REMARK  116 active torsions:
REMARK  status: ('A' for Active; 'I' for Inactive)
REMARK    1  A    between atoms: _1  and  _3
REMARK    2  A    between atoms: _3  and  _4
REMARK    3  A    between atoms: _7  and  _9
REMARK    4  A    between atoms: _9  and  _10
REMARK    5  A    between atoms: _13  and  _15
REMARK    6  A    between atoms: _15  and  _16
REMARK    7  A    between atoms: _15  and  _18
REMARK    8  A    between atoms: _18  and  _19
REMARK    9  A    between atoms: _25  and  _27
REMARK   10  A    between atoms: _27  and  _28
REMARK   11  A    between atoms: _27  and  _30
REMARK   12  A    between atoms: _30  and  _31
REMARK   13  A    between atoms: _31  and  _32
REMARK   14  A    between atoms: _37  and  _39
REMARK   15  A    between atoms: _39  and  _40
REMARK   16  A    between atoms: _39  and  _42
REMARK   17  A    between atoms: _42  and  _43
REMARK   18  A    between atoms: _48  and  _50
REMARK   19  A    between atoms: _50  and  _51
REMARK   20  A    between atoms: _50  and  _53
REMARK   21  A    between atoms: _53  and  _54
REMARK   22  A    between atoms: _54  and  _55
REMARK   23  A    between atoms: _57  and  _59
REMARK   24  A    between atoms: _59  and  _60
REMARK   25  A    between atoms: _59  and  _62
REMARK   26  A    between atoms: _62  and  _63
REMARK   27  A    between atoms: _66  and  _68
REMARK   28  A    between atoms: _68  and  _69
REMARK   29  A    between atoms: _68  and  _71
REMARK   30  A    between atoms: _71  and  _72
REMARK   31  A    between atoms: _72  and  _73
REMARK   32  A    between atoms: _73  and  _74
REMARK   33  A    between atoms: _83  and  _85
REMARK   34  A    between atoms: _85  and  _86
REMARK   35  A    between atoms: _85  and  _88
REMARK   36  A    between atoms: _88  and  _89
REMARK   37  A    between atoms: _89  and  _90
REMARK   38  A    between atoms: _90  and  _91
REMARK   39  A    between atoms: _91  and  _92
REMARK   40  A    between atoms: _97  and  _98
REMARK   41  A    between atoms: _103  and  _105
REMARK   42  A    between atoms: _105  and  _106
REMARK   43  A    between atoms: _105  and  _108
REMARK   44  A    between atoms: _111  and  _113
REMARK   45  A    between atoms: _113  and  _114
REMARK   46  A    between atoms: _113  and  _116
REMARK   47  A    between atoms: _116  and  _117
REMARK   48  A    between atoms: _122  and  _124
REMARK   49  A    between atoms: _124  and  _125
REMARK   50  A    between atoms: _124  and  _127
REMARK   51  A    between atoms: _127  and  _128
REMARK   52  A    between atoms: _131  and  _133
REMARK   53  A    between atoms: _133  and  _134
REMARK   54  A    between atoms: _133  and  _136
REMARK   55  A    between atoms: _136  and  _137
REMARK   56  A    between atoms: _143  and  _145
REMARK   57  A    between atoms: _145  and  _146
REMARK   58  A    between atoms: _145  and  _148
REMARK   59  A    between atoms: _148  and  _149
REMARK   60  A    between atoms: _152  and  _154
REMARK   61  A    between atoms: _154  and  _155
REMARK   62  A    between atoms: _154  and  _157
REMARK   63  A    between atoms: _157  and  _158
REMARK   64  A    between atoms: _161  and  _163
REMARK   65  A    between atoms: _163  and  _164
REMARK   66  A    between atoms: _163  and  _166
REMARK   67  A    between atoms: _166  and  _167
REMARK   68  A    between atoms: _170  and  _172
REMARK   69  A    between atoms: _172  and  _173
REMARK   70  A    between atoms: _172  and  _175
REMARK   71  A    between atoms: _177  and  _179
REMARK   72  A    between atoms: _179  and  _180
REMARK   73  A    between atoms: _179  and  _182
REMARK   74  A    between atoms: _182  and  _183
REMARK   75  A    between atoms: _183  and  _184
REMARK   76  A    between atoms: _184  and  _185
REMARK   77  A    between atoms: _194  and  _196
REMARK   78  A    between atoms: _196  and  _197
REMARK   79  A    between atoms: _196  and  _199
REMARK   80  A    between atoms: _199  and  _200
REMARK   81  A    between atoms: _200  and  _201
REMARK   82  A    between atoms: _201  and  _202
REMARK   83  A    between atoms: _202  and  _203
REMARK   84  A    between atoms: _207  and  _209
REMARK   85  A    between atoms: _209  and  _210
REMARK   86  A    between atoms: _209  and  _212
REMARK   87  A    between atoms: _212  and  _213
REMARK   88  A    between atoms: _216  and  _218
REMARK   89  A    between atoms: _218  and  _219
REMARK   90  A    between atoms: _218  and  _221
REMARK   91  A    between atoms: _224  and  _226
REMARK   92  A    between atoms: _226  and  _227
REMARK   93  A    between atoms: _230  and  _232
REMARK   94  A    between atoms: _232  and  _233
REMARK   95  A    between atoms: _232  and  _235
REMARK   96  A    between atoms: _238  and  _240
REMARK   97  A    between atoms: _240  and  _241
REMARK   98  A    between atoms: _240  and  _243
REMARK   99  A    between atoms: _243  and  _244
REMARK  100  A    between atoms: _249  and  _251
REMARK  101  A    between atoms: _251  and  _252
REMARK  102  A    between atoms: _251  and  _254
REMARK  103  A    between atoms: _254  and  _255
REMARK  104  A    between atoms: _261  and  _263
REMARK  105  A    between atoms: _263  and  _264
REMARK  106  A    between atoms: _263  and  _266
REMARK  107  A    between atoms: _266  and  _267
REMARK  108  A    between atoms: _270  and  _272
REMARK  109  A    between atoms: _272  and  _273
REMARK  110  A    between atoms: _276  and  _278
REMARK  111  A    between atoms: _278  and  _279
REMARK  112  A    between atoms: _278  and  _281
REMARK  113  A    between atoms: _281  and  _282
REMARK  114  A    between atoms: _284  and  _286
REMARK  115  A    between atoms: _286  and  _287
REMARK  116  A    between atoms: _286  and  _289
REMARK                            x       y       z     vdW  Elec       q    Type
REMARK                         _______ _______ _______ _____ _____    ______ ____
ROOT
ATOM      1  CG  LYS A   1     -12.205  28.607  23.110  0.00  0.00    -0.000 C 
ENDROOT
BRANCH   1   2
ATOM      2  CB  LYS A   1     -11.474  29.654  22.295  0.00  0.00    +0.025 C 
BRANCH   2   3
ATOM      3  CA  LYS A   1     -10.111  29.182  21.832  0.00  0.00    +0.133 C 
BRANCH   3   4
ATOM      4  N   LYS A   1      -9.314  28.757  22.981  0.00  0.00    -0.239 NA
ATOM      5  H   LYS A   1      -8.876  29.484  23.582  0.00  0.00    +0.142 HD
ENDBRANCH   3   4
BRANCH   3   6
ATOM      6  C   LYS A   1      -9.510  30.353  21.098  0.00  0.00    +0.224 C 
ATOM      7  O   LYS A   1      -8.566  30.957  21.599  0.00  0.00    -0.287 OA
ENDBRANCH   3   6
ENDBRANCH   2   3
ENDBRANCH   1   2
BRANCH   1   8
ATOM      8  CD  LYS A   1     -13.723  28.707  23.020  0.00  0.00    -0.024 C 
BRANCH   8   9
ATOM      9  CE  LYS A   1     -14.348  29.385  24.230  0.00  0.00    -0.086 C 
BRANCH   9  10
ATOM     10  NZ  LYS A   1     -15.816  29.361  24.198  0.00  0.00    +0.380 N 
ATOM     11  HZ1 LYS A   1     -16.188  29.836  25.045  0.00  0.00    -0.089 HD
ATOM     12  HZ2 LYS A   1     -16.145  28.375  24.180  0.00  0.00    -0.089 HD
ATOM     13  HZ3 LYS A   1     -16.151  29.855  23.347  0.00  0.00    -0.089 HD
ENDBRANCH   9  10
ENDBRANCH   8   9
ENDBRANCH   1   8
TORSDOF 7
REMARK  Name = ../refined-set-2016/4rsk/4rsk_pocket.pdb
REMARK  116 active torsions:
REMARK  status: ('A' for Active; 'I' for Inactive)
REMARK    1  A    between atoms: _1  and  _3
REMARK    2  A    between atoms: _3  and  _4
REMARK    3  A    between atoms: _7  and  _9
REMARK    4  A    between atoms: _9  and  _10
REMARK    5  A    between atoms: _13  and  _15
REMARK    6  A    between atoms: _15  and  _16
REMARK    7  A    between atoms: _15  and  _18
REMARK    8  A    between atoms: _18  and  _19
REMARK    9  A    between atoms: _25  and  _27
REMARK   10  A    between atoms: _27  and  _28
REMARK   11  A    between atoms: _27  and  _30
REMARK   12  A    between atoms: _30  and  _31
REMARK   13  A    between atoms: _31  and  _32
REMARK   14  A    between atoms: _37  and  _39
REMARK   15  A    between atoms: _39  and  _40
REMARK   16  A    between atoms: _39  and  _42
REMARK   17  A    between atoms: _42  and  _43
REMARK   18  A    between atoms: _48  and  _50
REMARK   19  A    between atoms: _50  and  _51
REMARK   20  A    between atoms: _50  and  _53
REMARK   21  A    between atoms: _53  and  _54
REMARK   22  A    between atoms: _54  and  _55
REMARK   23  A    between atoms: _57  and  _59
REMARK   24  A    between atoms: _59  and  _60
REMARK   25  A    between atoms: _59  and  _62
REMARK   26  A    between atoms: _62  and  _63
REMARK   27  A    between atoms: _66  and  _68
REMARK   28  A    between atoms: _68  and  _69
REMARK   29  A    between atoms: _68  and  _71
REMARK   30  A    between atoms: _71  and  _72
REMARK   31  A    between atoms: _72  and  _73
REMARK   32  A    between atoms: _73  and  _74
REMARK   33  A    between atoms: _83  and  _85
REMARK   34  A    between atoms: _85  and  _86
REMARK   35  A    between atoms: _85  and  _88
REMARK   36  A    between atoms: _88  and  _89
REMARK   37  A    between atoms: _89  and  _90
REMARK   38  A    between atoms: _90  and  _91
REMARK   39  A    between atoms: _91  and  _92
REMARK   40  A    between atoms: _97  and  _98
REMARK   41  A    between atoms: _103  and  _105
REMARK   42  A    between atoms: _105  and  _106
REMARK   43  A    between atoms: _105  and  _108
REMARK   44  A    between atoms: _111  and  _113
REMARK   45  A    between atoms: _113  and  _114
REMARK   46  A    between atoms: _113  and  _116
REMARK   47  A    between atoms: _116  and  _117
REMARK   48  A    between atoms: _122  and  _124
REMARK   49  A    between atoms: _124  and  _125
REMARK   50  A    between atoms: _124  and  _127
REMARK   51  A    between atoms: _127  and  _128
REMARK   52  A    between atoms: _131  and  _133
REMARK   53  A    between atoms: _133  and  _134
REMARK   54  A    between atoms: _133  and  _136
REMARK   55  A    between atoms: _136  and  _137
REMARK   56  A    between atoms: _143  and  _145
REMARK   57  A    between atoms: _145  and  _146
REMARK   58  A    between atoms: _145  and  _148
REMARK   59  A    between atoms: _148  and  _149
REMARK   60  A    between atoms: _152  and  _154
REMARK   61  A    between atoms: _154  and  _155
REMARK   62  A    between atoms: _154  and  _157
REMARK   63  A    between atoms: _157  and  _158
REMARK   64  A    between atoms: _161  and  _163
REMARK   65  A    between atoms: _163  and  _164
REMARK   66  A    between atoms: _163  and  _166
REMARK   67  A    between atoms: _166  and  _167
REMARK   68  A    between atoms: _170  and  _172
REMARK   69  A    between atoms: _172  and  _173
REMARK   70  A    between atoms: _172  and  _175
REMARK   71  A    between atoms: _177  and  _179
REMARK   72  A    between atoms: _179  and  _180
REMARK   73  A    between atoms: _179  and  _182
REMARK   74  A    between atoms: _182  and  _183
REMARK   75  A    between atoms: _183  and  _184
REMARK   76  A    between atoms: _184  and  _185
REMARK   77  A    between atoms: _194  and  _196
REMARK   78  A    between atoms: _196  and  _197
REMARK   79  A    between atoms: _196  and  _199
REMARK   80  A    between atoms: _199  and  _200
REMARK   81  A    between atoms: _200  and  _201
REMARK   82  A    between atoms: _201  and  _202
REMARK   83  A    between atoms: _202  and  _203
REMARK   84  A    between atoms: _207  and  _209
REMARK   85  A    between atoms: _209  and  _210
REMARK   86  A    between atoms: _209  and  _212
REMARK   87  A    between atoms: _212  and  _213
REMARK   88  A    between atoms: _216  and  _218
REMARK   89  A    between atoms: _218  and  _219
REMARK   90  A    between atoms: _218  and  _221
REMARK   91  A    between atoms: _224  and  _226
REMARK   92  A    between atoms: _226  and  _227
REMARK   93  A    between atoms: _230  and  _232
REMARK   94  A    between atoms: _232  and  _233
REMARK   95  A    between atoms: _232  and  _235
REMARK   96  A    between atoms: _238  and  _240
REMARK   97  A    between atoms: _240  and  _241
REMARK   98  A    between atoms: _240  and  _243
REMARK   99  A    between atoms: _243  and  _244
REMARK  100  A    between atoms: _249  and  _251
REMARK  101  A    between atoms: _251  and  _252
REMARK  102  A    between atoms: _251  and  _254
REMARK  103  A    between atoms: _254  and  _255
REMARK  104  A    between atoms: _261  and  _263
REMARK  105  A    between atoms: _263  and  _264
REMARK  106  A    between atoms: _263  and  _266
REMARK  107  A    between atoms: _266  and  _267
REMARK  108  A    between atoms: _270  and  _272
REMARK  109  A    between atoms: _272  and  _273
REMARK  110  A    between atoms: _276  and  _278
REMARK  111  A    between atoms: _278  and  _279
REMARK  112  A    between atoms: _278  and  _281
REMARK  113  A    between atoms: _281  and  _282
REMARK  114  A    between atoms: _284  and  _286
REMARK  115  A    between atoms: _286  and  _287
REMARK  116  A    between atoms: _286  and  _289
REMARK                            x       y       z     vdW  Elec       q    Type
REMARK                         _______ _______ _______ _____ _____    ______ ____
ROOT
ATOM      1  CA  VAL A   2     -11.420  41.906  19.108  0.00  0.00    +0.148 C 
ENDROOT
BRANCH   1   4
ATOM      2  C   ILE A   1     -12.210  39.624  18.908  0.00  0.00    +0.238 C 
ATOM      3  O   ILE A   1     -12.933  39.801  19.879  0.00  0.00    -0.274 OA
ATOM      4  N   VAL A   2     -11.425  40.596  18.444  0.00  0.00    -0.297 N 
ATOM      5  H   VAL A   2     -10.819  40.428  17.616  0.00  0.00    +0.150 HD
BRANCH   2   6
ATOM      6  CA  ILE A   1     -12.171  38.252  18.224  0.00  0.00    +0.145 C 
BRANCH   6   7
ATOM      7  N   ILE A   1     -11.740  37.242  19.211  0.00  0.00    -0.238 NA
ATOM      8  H   ILE A   1     -12.256  37.209  20.113  0.00  0.00    +0.142 HD
ENDBRANCH   6   7
BRANCH   6   9
ATOM      9  CB  ILE A   1     -13.562  37.937  17.655  0.00  0.00    +0.025 C 
ATOM     10  CG2 ILE A   1     -13.979  38.961  16.579  0.00  0.00    +0.002 C 
BRANCH   9  11
ATOM     11  CG1 ILE A   1     -13.619  36.512  17.114  0.00  0.00    +0.002 C 
ATOM     12  CD1 ILE A   1     -14.895  36.192  16.331  0.00  0.00    +0.000 C 
ENDBRANCH   9  11
ENDBRANCH   6   9
ENDBRANCH   2   6
ENDBRANCH   1   4
BRANCH   1  13
ATOM     13  C   VAL A   2     -11.642  43.033  18.108  0.00  0.00    +0.241 C 
ATOM     14  N   ALA A   3     -12.105  44.193  18.590  0.00  0.00    -0.298 N 
ATOM     15  H   ALA A   3     -12.343  44.271  19.599  0.00  0.00    +0.150 HD
ATOM     16  O   VAL A   2     -11.400  42.859  16.906  0.00  0.00    -0.273 OA
BRANCH  14  17
ATOM     17  CA  ALA A   3     -12.280  45.354  17.713  0.00  0.00    +0.137 C 
ATOM     18  CB  ALA A   3     -13.530  46.178  18.075  0.00  0.00    +0.030 C 
BRANCH  17  19
ATOM     19  C   ALA A   3     -11.041  46.235  17.918  0.00  0.00    +0.227 C 
ATOM     20  O   ALA A   3     -10.640  46.434  19.074  0.00  0.00    -0.286 OA
ENDBRANCH  17  19
ENDBRANCH  14  17
ENDBRANCH   1  13
BRANCH   1  21
ATOM     21  CB  VAL A   2     -10.109  42.170  19.896  0.00  0.00    +0.027 C 
ATOM     22  CG2 VAL A   2      -9.936  41.204  21.048  0.00  0.00    +0.002 C 
ATOM     23  CG1 VAL A   2      -8.857  42.069  19.019  0.00  0.00    +0.002 C 
ENDBRANCH   1  21
TORSDOF 9
REMARK  Name = ../refined-set-2016/4rsk/4rsk_pocket.pdb
REMARK  116 active torsions:
REMARK  status: ('A' for Active; 'I' for Inactive)
REMARK    1  A    between atoms: _1  and  _3
REMARK    2  A    between atoms: _3  and  _4
REMARK    3  A    between atoms: _7  and  _9
REMARK    4  A    between atoms: _9  and  _10
REMARK    5  A    between atoms: _13  and  _15
REMARK    6  A    between atoms: _15  and  _16
REMARK    7  A    between atoms: _15  and  _18
REMARK    8  A    between atoms: _18  and  _19
REMARK    9  A    between atoms: _25  and  _27
REMARK   10  A    between atoms: _27  and  _28
REMARK   11  A    between atoms: _27  and  _30
REMARK   12  A    between atoms: _30  and  _31
REMARK   13  A    between atoms: _31  and  _32
REMARK   14  A    between atoms: _37  and  _39
REMARK   15  A    between atoms: _39  and  _40
REMARK   16  A    between atoms: _39  and  _42
REMARK   17  A    between atoms: _42  and  _43
REMARK   18  A    between atoms: _48  and  _50
REMARK   19  A    between atoms: _50  and  _51
REMARK   20  A    between atoms: _50  and  _53
REMARK   21  A    between atoms: _53  and  _54
REMARK   22  A    between atoms: _54  and  _55
REMARK   23  A    between atoms: _57  and  _59
REMARK   24  A    between atoms: _59  and  _60
REMARK   25  A    between atoms: _59  and  _62
REMARK   26  A    between atoms: _62  and  _63
REMARK   27  A    between atoms: _66  and  _68
REMARK   28  A    between atoms: _68  and  _69
REMARK   29  A    between atoms: _68  and  _71
REMARK   30  A    between atoms: _71  and  _72
REMARK   31  A    between atoms: _72  and  _73
REMARK   32  A    between atoms: _73  and  _74
REMARK   33  A    between atoms: _83  and  _85
REMARK   34  A    between atoms: _85  and  _86
REMARK   35  A    between atoms: _85  and  _88
REMARK   36  A    between atoms: _88  and  _89
REMARK   37  A    between atoms: _89  and  _90
REMARK   38  A    between atoms: _90  and  _91
REMARK   39  A    between atoms: _91  and  _92
REMARK   40  A    between atoms: _97  and  _98
REMARK   41  A    between atoms: _103  and  _105
REMARK   42  A    between atoms: _105  and  _106
REMARK   43  A    between atoms: _105  and  _108
REMARK   44  A    between atoms: _111  and  _113
REMARK   45  A    between atoms: _113  and  _114
REMARK   46  A    between atoms: _113  and  _116
REMARK   47  A    between atoms: _116  and  _117
REMARK   48  A    between atoms: _122  and  _124
REMARK   49  A    between atoms: _124  and  _125
REMARK   50  A    between atoms: _124  and  _127
REMARK   51  A    between atoms: _127  and  _128
REMARK   52  A    between atoms: _131  and  _133
REMARK   53  A    between atoms: _133  and  _134
REMARK   54  A    between atoms: _133  and  _136
REMARK   55  A    between atoms: _136  and  _137
REMARK   56  A    between atoms: _143  and  _145
REMARK   57  A    between atoms: _145  and  _146
REMARK   58  A    between atoms: _145  and  _148
REMARK   59  A    between atoms: _148  and  _149
REMARK   60  A    between atoms: _152  and  _154
REMARK   61  A    between atoms: _154  and  _155
REMARK   62  A    between atoms: _154  and  _157
REMARK   63  A    between atoms: _157  and  _158
REMARK   64  A    between atoms: _161  and  _163
REMARK   65  A    between atoms: _163  and  _164
REMARK   66  A    between atoms: _163  and  _166
REMARK   67  A    between atoms: _166  and  _167
REMARK   68  A    between atoms: _170  and  _172
REMARK   69  A    between atoms: _172  and  _173
REMARK   70  A    between atoms: _172  and  _175
REMARK   71  A    between atoms: _177  and  _179
REMARK   72  A    between atoms: _179  and  _180
REMARK   73  A    between atoms: _179  and  _182
REMARK   74  A    between atoms: _182  and  _183
REMARK   75  A    between atoms: _183  and  _184
REMARK   76  A    between atoms: _184  and  _185
REMARK   77  A    between atoms: _194  and  _196
REMARK   78  A    between atoms: _196  and  _197
REMARK   79  A    between atoms: _196  and  _199
REMARK   80  A    between atoms: _199  and  _200
REMARK   81  A    between atoms: _200  and  _201
REMARK   82  A    between atoms: _201  and  _202
REMARK   83  A    between atoms: _202  and  _203
REMARK   84  A    between atoms: _207  and  _209
REMARK   85  A    between atoms: _209  and  _210
REMARK   86  A    between atoms: _209  and  _212
REMARK   87  A    between atoms: _212  and  _213
REMARK   88  A    between atoms: _216  and  _218
REMARK   89  A    between atoms: _218  and  _219
REMARK   90  A    between atoms: _218  and  _221
REMARK   91  A    between atoms: _224  and  _226
REMARK   92  A    between atoms: _226  and  _227
REMARK   93  A    between atoms: _230  and  _232
REMARK   94  A    between atoms: _232  and  _233
REMARK   95  A    between atoms: _232  and  _235
REMARK   96  A    between atoms: _238  and  _240
REMARK   97  A    between atoms: _240  and  _241
REMARK   98  A    between atoms: _240  and  _243
REMARK   99  A    between atoms: _243  and  _244
REMARK  100  A    between atoms: _249  and  _251
REMARK  101  A    between atoms: _251  and  _252
REMARK  102  A    between atoms: _251  and  _254
REMARK  103  A    between atoms: _254  and  _255
REMARK  104  A    between atoms: _261  and  _263
REMARK  105  A    between atoms: _263  and  _264
REMARK  106  A    between atoms: _263  and  _266
REMARK  107  A    between atoms: _266  and  _267
REMARK  108  A    between atoms: _270  and  _272
REMARK  109  A    between atoms: _272  and  _273
REMARK  110  A    between atoms: _276  and  _278
REMARK  111  A    between atoms: _278  and  _279
REMARK  112  A    between atoms: _278  and  _281
REMARK  113  A    between atoms: _281  and  _282
REMARK  114  A    between atoms: _284  and  _286
REMARK  115  A    between atoms: _286  and  _287
REMARK  116  A    between atoms: _286  and  _289
REMARK                            x       y       z     vdW  Elec       q    Type
REMARK                         _______ _______ _______ _____ _____    ______ ____
ROOT
ATOM      1  C   PHE A   3     -14.985  41.670  22.677  0.00  0.00    +0.241 C 
ATOM      2  O   PHE A   3     -15.971  41.719  23.388  0.00  0.00    -0.273 OA
ATOM      3  N   ASP A   4     -15.049  41.252  21.426  0.00  0.00    -0.297 N 
ATOM      4  H   ASP A   4     -14.168  41.204  20.875  0.00  0.00    +0.150 HD
ENDROOT
BRANCH   3   5
ATOM      5  CA  ASP A   4     -16.290  40.855  20.780  0.00  0.00    +0.160 C 
BRANCH   5   6
ATOM      6  C   ASP A   4     -16.821  39.461  21.122  0.00  0.00    +0.241 C 
ATOM      7  O   ASP A   4     -18.011  39.296  21.376  0.00  0.00    -0.273 OA
ATOM      8  N   ALA A   5     -15.960  38.446  21.108  0.00  0.00    -0.297 N 
ATOM      9  H   ALA A   5     -14.959  38.636  20.900  0.00  0.00    +0.150 HD
BRANCH   8  10
ATOM     10  CA  ALA A   5     -16.376  37.086  21.374  0.00  0.00    +0.149 C 
ATOM     11  CB  ALA A   5     -17.313  36.709  20.229  0.00  0.00    +0.031 C 
BRANCH  10  12
ATOM     12  C   ALA A   5     -15.186  36.142  21.287  0.00  0.00    +0.241 C 
ATOM     13  N   SER A   6     -15.404  34.864  21.596  0.00  0.00    -0.295 N 
ATOM     14  H   SER A   6     -16.351  34.592  21.929  0.00  0.00    +0.150 HD
ATOM     15  O   ALA A   5     -14.101  36.566  20.928  0.00  0.00    -0.273 OA
BRANCH  13  16
ATOM     16  CA  SER A   6     -14.379  33.823  21.491  0.00  0.00    +0.178 C 
BRANCH  16  17
ATOM     17  C   SER A   6     -14.953  32.733  20.602  0.00  0.00    +0.243 C 
ATOM     18  O   SER A   6     -16.171  32.620  20.524  0.00  0.00    -0.273 OA
ATOM     19  N   VAL A   7     -14.120  31.972  19.886  0.00  0.00    -0.295 N 
ATOM     20  H   VAL A   7     -13.095  32.135  19.956  0.00  0.00    +0.150 HD
BRANCH  19  21
ATOM     21  CA  VAL A   7     -14.620  30.912  19.003  0.00  0.00    +0.176 C 
BRANCH  21  22
ATOM     22  CB  VAL A   7     -14.593  31.164  17.497  0.00  0.00    +0.029 C 
ATOM     23  CG2 VAL A   7     -14.566  32.639  17.201  0.00  0.00    +0.002 C 
ATOM     24  CG1 VAL A   7     -15.851  30.528  16.908  0.00  0.00    +0.002 C 
ENDBRANCH  21  22
BRANCH  21  25
ATOM     25  C   VAL A   7     -13.894  29.604  19.164  0.00  0.00    +0.382 C 
ATOM     26  OXT VAL A   7     -14.609  28.599  19.412  0.00  0.00    -0.244 OA
ATOM     27  O   VAL A   7     -12.665  29.646  18.952  0.00  0.00    -0.244 OA
ENDBRANCH  21  25
ENDBRANCH  19  21
ENDBRANCH  16  17
BRANCH  16  28
ATOM     28  CB  SER A   6     -13.901  33.294  22.832  0.00  0.00    +0.166 C 
BRANCH  28  29
ATOM     29  OG  SER A   6     -14.852  32.421  23.425  0.00  0.00    -0.380 OA
ATOM     30  H   SER A   6     -15.702  32.909  23.568  0.00  0.00    +0.211 HD
ENDBRANCH  28  29
ENDBRANCH  16  28
ENDBRANCH  13  16
ENDBRANCH  10  12
ENDBRANCH   8  10
ENDBRANCH   5   6
BRANCH   5  31
ATOM     31  CB  ASP A   4     -16.198  41.052  19.236  0.00  0.00    +0.143 C 
BRANCH  31  32
ATOM     32  CG  ASP A   4     -17.521  41.253  18.509  0.00  0.00    +0.367 C 
ATOM     33  OD2 ASP A   4     -18.174  42.298  18.907  0.00  0.00    -0.246 OA
ATOM     34  OD1 ASP A   4     -17.956  40.544  17.630  0.00  0.00    -0.246 OA
ENDBRANCH  31  32
ENDBRANCH   5  31
ENDBRANCH   3   5
BRANCH   1  35
ATOM     35  CA  PHE A   3     -13.630  42.127  23.209  0.00  0.00    +0.153 C 
BRANCH  35  37
ATOM     36  C   HIS A   2     -13.013  44.436  22.429  0.00  0.00    +0.241 C 
ATOM     37  N   PHE A   3     -13.645  43.611  23.269  0.00  0.00    -0.297 N 
ATOM     38  H   PHE A   3     -14.198  44.048  24.034  0.00  0.00    +0.150 HD
ATOM     39  O   HIS A   2     -12.321  44.069  21.496  0.00  0.00    -0.273 OA
BRANCH  36  40
ATOM     40  CA  HIS A   2     -13.193  45.943  22.630  0.00  0.00    +0.155 C 
BRANCH  40  43
ATOM     41  C   VAL A   1     -11.650  47.844  22.733  0.00  0.00    +0.238 C 
ATOM     42  O   VAL A   1     -12.326  48.394  23.606  0.00  0.00    -0.274 OA
ATOM     43  N   HIS A   2     -12.001  46.675  22.186  0.00  0.00    -0.297 N 
ATOM     44  H   HIS A   2     -11.414  46.274  21.427  0.00  0.00    +0.150 HD
BRANCH  41  45
ATOM     45  CA  VAL A   1     -10.368  48.502  22.222  0.00  0.00    +0.145 C 
BRANCH  45  46
ATOM     46  CB  VAL A   1     -10.703  49.854  21.615  0.00  0.00    +0.025 C 
ATOM     47  CG2 VAL A   1      -9.404  50.604  21.414  0.00  0.00    +0.002 C 
ATOM     48  CG1 VAL A   1     -11.362  49.644  20.247  0.00  0.00    +0.002 C 
ENDBRANCH  45  46
BRANCH  45  49
ATOM     49  N   VAL A   1      -9.586  47.631  21.333  0.00  0.00    -0.238 NA
ATOM     50  H   VAL A   1     -10.034  47.219  20.489  0.00  0.00    +0.142 HD
ENDBRANCH  45  49
ENDBRANCH  41  45
ENDBRANCH  40  43
BRANCH  40  51
ATOM     51  CB  HIS A   2     -14.488  46.388  21.890  0.00  0.00    +0.076 C 
BRANCH  51  52
ATOM     52  CG  HIS A   2     -14.879  47.813  22.143  0.00  0.00    +0.082 A 
ATOM     53  ND1 HIS A   2     -15.301  48.243  23.392  0.00  0.00    -0.227 NA
ATOM     54  CE1 HIS A   2     -15.568  49.541  23.296  0.00  0.00    +0.199 A 
ATOM     55  NE2 HIS A   2     -15.341  49.963  22.060  0.00  0.00    -0.221 NA
ATOM     56  CD2 HIS A   2     -14.917  48.887  21.304  0.00  0.00    +0.115 A 
ENDBRANCH  51  52
ENDBRANCH  40  51
ENDBRANCH  36  40
ENDBRANCH  35  37
BRANCH  35  57
ATOM     57  CB  PHE A   3     -13.318  41.437  24.576  0.00  0.00    +0.055 C 
BRANCH  57  58
ATOM     58  CG  PHE A   3     -12.912  39.966  24.439  0.00  0.00    -0.020 A 
ATOM     59  CD2 PHE A   3     -11.578  39.545  24.473  0.00  0.00    -0.004 A 
ATOM     60  CE2 PHE A   3     -11.239  38.199  24.313  0.00  0.00    -0.000 A 
ATOM     61  CZ  PHE A   3     -12.261  37.266  24.134  0.00  0.00    -0.000 A 
ATOM     62  CE1 PHE A   3     -13.606  37.645  24.142  0.00  0.00    -0.000 A 
ATOM     63  CD1 PHE A   3     -13.910  38.998  24.291  0.00  0.00    -0.004 A 
ENDBRANCH  57  58
ENDBRANCH  35  57
ENDBRANCH   1  35
TORSDOF 24
REMARK  Name = ../refined-set-2016/4rsk/4rsk_pocket.pdb
REMARK  116 active torsions:
REMARK  status: ('A' for Active; 'I' for Inactive)
REMARK    1  A    between atoms: _1  and  _3
REMARK    2  A    between atoms: _3  and  _4
REMARK    3  A    between atoms: _7  and  _9
REMARK    4  A    between atoms: _9  and  _10
REMARK    5  A    between atoms: _13  and  _15
REMARK    6  A    between atoms: _15  and  _16
REMARK    7  A    between atoms: _15  and  _18
REMARK    8  A    between atoms: _18  and  _19
REMARK    9  A    between atoms: _25  and  _27
REMARK   10  A    between atoms: _27  and  _28
REMARK   11  A    between atoms: _27  and  _30
REMARK   12  A    between atoms: _30  and  _31
REMARK   13  A    between atoms: _31  and  _32
REMARK   14  A    between atoms: _37  and  _39
REMARK   15  A    between atoms: _39  and  _40
REMARK   16  A    between atoms: _39  and  _42
REMARK   17  A    between atoms: _42  and  _43
REMARK   18  A    between atoms: _48  and  _50
REMARK   19  A    between atoms: _50  and  _51
REMARK   20  A    between atoms: _50  and  _53
REMARK   21  A    between atoms: _53  and  _54
REMARK   22  A    between atoms: _54  and  _55
REMARK   23  A    between atoms: _57  and  _59
REMARK   24  A    between atoms: _59  and  _60
REMARK   25  A    between atoms: _59  and  _62
REMARK   26  A    between atoms: _62  and  _63
REMARK   27  A    between atoms: _66  and  _68
REMARK   28  A    between atoms: _68  and  _69
REMARK   29  A    between atoms: _68  and  _71
REMARK   30  A    between atoms: _71  and  _72
REMARK   31  A    between atoms: _72  and  _73
REMARK   32  A    between atoms: _73  and  _74
REMARK   33  A    between atoms: _83  and  _85
REMARK   34  A    between atoms: _85  and  _86
REMARK   35  A    between atoms: _85  and  _88
REMARK   36  A    between atoms: _88  and  _89
REMARK   37  A    between atoms: _89  and  _90
REMARK   38  A    between atoms: _90  and  _91
REMARK   39  A    between atoms: _91  and  _92
REMARK   40  A    between atoms: _97  and  _98
REMARK   41  A    between atoms: _103  and  _105
REMARK   42  A    between atoms: _105  and  _106
REMARK   43  A    between atoms: _105  and  _108
REMARK   44  A    between atoms: _111  and  _113
REMARK   45  A    between atoms: _113  and  _114
REMARK   46  A    between atoms: _113  and  _116
REMARK   47  A    between atoms: _116  and  _117
REMARK   48  A    between atoms: _122  and  _124
REMARK   49  A    between atoms: _124  and  _125
REMARK   50  A    between atoms: _124  and  _127
REMARK   51  A    between atoms: _127  and  _128
REMARK   52  A    between atoms: _131  and  _133
REMARK   53  A    between atoms: _133  and  _134
REMARK   54  A    between atoms: _133  and  _136
REMARK   55  A    between atoms: _136  and  _137
REMARK   56  A    between atoms: _143  and  _145
REMARK   57  A    between atoms: _145  and  _146
REMARK   58  A    between atoms: _145  and  _148
REMARK   59  A    between atoms: _148  and  _149
REMARK   60  A    between atoms: _152  and  _154
REMARK   61  A    between atoms: _154  and  _155
REMARK   62  A    between atoms: _154  and  _157
REMARK   63  A    between atoms: _157  and  _158
REMARK   64  A    between atoms: _161  and  _163
REMARK   65  A    between atoms: _163  and  _164
REMARK   66  A    between atoms: _163  and  _166
REMARK   67  A    between atoms: _166  and  _167
REMARK   68  A    between atoms: _170  and  _172
REMARK   69  A    between atoms: _172  and  _173
REMARK   70  A    between atoms: _172  and  _175
REMARK   71  A    between atoms: _177  and  _179
REMARK   72  A    between atoms: _179  and  _180
REMARK   73  A    between atoms: _179  and  _182
REMARK   74  A    between atoms: _182  and  _183
REMARK   75  A    between atoms: _183  and  _184
REMARK   76  A    between atoms: _184  and  _185
REMARK   77  A    between atoms: _194  and  _196
REMARK   78  A    between atoms: _196  and  _197
REMARK   79  A    between atoms: _196  and  _199
REMARK   80  A    between atoms: _199  and  _200
REMARK   81  A    between atoms: _200  and  _201
REMARK   82  A    between atoms: _201  and  _202
REMARK   83  A    between atoms: _202  and  _203
REMARK   84  A    between atoms: _207  and  _209
REMARK   85  A    between atoms: _209  and  _210
REMARK   86  A    between atoms: _209  and  _212
REMARK   87  A    between atoms: _212  and  _213
REMARK   88  A    between atoms: _216  and  _218
REMARK   89  A    between atoms: _218  and  _219
REMARK   90  A    between atoms: _218  and  _221
REMARK   91  A    between atoms: _224  and  _226
REMARK   92  A    between atoms: _226  and  _227
REMARK   93  A    between atoms: _230  and  _232
REMARK   94  A    between atoms: _232  and  _233
REMARK   95  A    between atoms: _232  and  _235
REMARK   96  A    between atoms: _238  and  _240
REMARK   97  A    between atoms: _240  and  _241
REMARK   98  A    between atoms: _240  and  _243
REMARK   99  A    between atoms: _243  and  _244
REMARK  100  A    between atoms: _249  and  _251
REMARK  101  A    between atoms: _251  and  _252
REMARK  102  A    between atoms: _251  and  _254
REMARK  103  A    between atoms: _254  and  _255
REMARK  104  A    between atoms: _261  and  _263
REMARK  105  A    between atoms: _263  and  _264
REMARK  106  A    between atoms: _263  and  _266
REMARK  107  A    between atoms: _266  and  _267
REMARK  108  A    between atoms: _270  and  _272
REMARK  109  A    between atoms: _272  and  _273
REMARK  110  A    between atoms: _276  and  _278
REMARK  111  A    between atoms: _278  and  _279
REMARK  112  A    between atoms: _278  and  _281
REMARK  113  A    between atoms: _281  and  _282
REMARK  114  A    between atoms: _284  and  _286
REMARK  115  A    between atoms: _286  and  _287
REMARK  116  A    between atoms: _286  and  _289
REMARK                            x       y       z     vdW  Elec       q    Type
REMARK                         _______ _______ _______ _____ _____    ______ ____
ROOT
ATOM      1  O   HOH     1     -12.218  49.824  25.733  0.00  0.00    +0.000 OA
ENDROOT
TORSDOF 0
REMARK  Name = ../refined-set-2016/4rsk/4rsk_pocket.pdb
REMARK  116 active torsions:
REMARK  status: ('A' for Active; 'I' for Inactive)
REMARK    1  A    between atoms: _1  and  _3
REMARK    2  A    between atoms: _3  and  _4
REMARK    3  A    between atoms: _7  and  _9
REMARK    4  A    between atoms: _9  and  _10
REMARK    5  A    between atoms: _13  and  _15
REMARK    6  A    between atoms: _15  and  _16
REMARK    7  A    between atoms: _15  and  _18
REMARK    8  A    between atoms: _18  and  _19
REMARK    9  A    between atoms: _25  and  _27
REMARK   10  A    between atoms: _27  and  _28
REMARK   11  A    between atoms: _27  and  _30
REMARK   12  A    between atoms: _30  and  _31
REMARK   13  A    between atoms: _31  and  _32
REMARK   14  A    between atoms: _37  and  _39
REMARK   15  A    between atoms: _39  and  _40
REMARK   16  A    between atoms: _39  and  _42
REMARK   17  A    between atoms: _42  and  _43
REMARK   18  A    between atoms: _48  and  _50
REMARK   19  A    between atoms: _50  and  _51
REMARK   20  A    between atoms: _50  and  _53
REMARK   21  A    between atoms: _53  and  _54
REMARK   22  A    between atoms: _54  and  _55
REMARK   23  A    between atoms: _57  and  _59
REMARK   24  A    between atoms: _59  and  _60
REMARK   25  A    between atoms: _59  and  _62
REMARK   26  A    between atoms: _62  and  _63
REMARK   27  A    between atoms: _66  and  _68
REMARK   28  A    between atoms: _68  and  _69
REMARK   29  A    between atoms: _68  and  _71
REMARK   30  A    between atoms: _71  and  _72
REMARK   31  A    between atoms: _72  and  _73
REMARK   32  A    between atoms: _73  and  _74
REMARK   33  A    between atoms: _83  and  _85
REMARK   34  A    between atoms: _85  and  _86
REMARK   35  A    between atoms: _85  and  _88
REMARK   36  A    between atoms: _88  and  _89
REMARK   37  A    between atoms: _89  and  _90
REMARK   38  A    between atoms: _90  and  _91
REMARK   39  A    between atoms: _91  and  _92
REMARK   40  A    between atoms: _97  and  _98
REMARK   41  A    between atoms: _103  and  _105
REMARK   42  A    between atoms: _105  and  _106
REMARK   43  A    between atoms: _105  and  _108
REMARK   44  A    between atoms: _111  and  _113
REMARK   45  A    between atoms: _113  and  _114
REMARK   46  A    between atoms: _113  and  _116
REMARK   47  A    between atoms: _116  and  _117
REMARK   48  A    between atoms: _122  and  _124
REMARK   49  A    between atoms: _124  and  _125
REMARK   50  A    between atoms: _124  and  _127
REMARK   51  A    between atoms: _127  and  _128
REMARK   52  A    between atoms: _131  and  _133
REMARK   53  A    between atoms: _133  and  _134
REMARK   54  A    between atoms: _133  and  _136
REMARK   55  A    between atoms: _136  and  _137
REMARK   56  A    between atoms: _143  and  _145
REMARK   57  A    between atoms: _145  and  _146
REMARK   58  A    between atoms: _145  and  _148
REMARK   59  A    between atoms: _148  and  _149
REMARK   60  A    between atoms: _152  and  _154
REMARK   61  A    between atoms: _154  and  _155
REMARK   62  A    between atoms: _154  and  _157
REMARK   63  A    between atoms: _157  and  _158
REMARK   64  A    between atoms: _161  and  _163
REMARK   65  A    between atoms: _163  and  _164
REMARK   66  A    between atoms: _163  and  _166
REMARK   67  A    between atoms: _166  and  _167
REMARK   68  A    between atoms: _170  and  _172
REMARK   69  A    between atoms: _172  and  _173
REMARK   70  A    between atoms: _172  and  _175
REMARK   71  A    between atoms: _177  and  _179
REMARK   72  A    between atoms: _179  and  _180
REMARK   73  A    between atoms: _179  and  _182
REMARK   74  A    between atoms: _182  and  _183
REMARK   75  A    between atoms: _183  and  _184
REMARK   76  A    between atoms: _184  and  _185
REMARK   77  A    between atoms: _194  and  _196
REMARK   78  A    between atoms: _196  and  _197
REMARK   79  A    between atoms: _196  and  _199
REMARK   80  A    between atoms: _199  and  _200
REMARK   81  A    between atoms: _200  and  _201
REMARK   82  A    between atoms: _201  and  _202
REMARK   83  A    between atoms: _202  and  _203
REMARK   84  A    between atoms: _207  and  _209
REMARK   85  A    between atoms: _209  and  _210
REMARK   86  A    between atoms: _209  and  _212
REMARK   87  A    between atoms: _212  and  _213
REMARK   88  A    between atoms: _216  and  _218
REMARK   89  A    between atoms: _218  and  _219
REMARK   90  A    between atoms: _218  and  _221
REMARK   91  A    between atoms: _224  and  _226
REMARK   92  A    between atoms: _226  and  _227
REMARK   93  A    between atoms: _230  and  _232
REMARK   94  A    between atoms: _232  and  _233
REMARK   95  A    between atoms: _232  and  _235
REMARK   96  A    between atoms: _238  and  _240
REMARK   97  A    between atoms: _240  and  _241
REMARK   98  A    between atoms: _240  and  _243
REMARK   99  A    between atoms: _243  and  _244
REMARK  100  A    between atoms: _249  and  _251
REMARK  101  A    between atoms: _251  and  _252
REMARK  102  A    between atoms: _251  and  _254
REMARK  103  A    between atoms: _254  and  _255
REMARK  104  A    between atoms: _261  and  _263
REMARK  105  A    between atoms: _263  and  _264
REMARK  106  A    between atoms: _263  and  _266
REMARK  107  A    between atoms: _266  and  _267
REMARK  108  A    between atoms: _270  and  _272
REMARK  109  A    between atoms: _272  and  _273
REMARK  110  A    between atoms: _276  and  _278
REMARK  111  A    between atoms: _278  and  _279
REMARK  112  A    between atoms: _278  and  _281
REMARK  113  A    between atoms: _281  and  _282
REMARK  114  A    between atoms: _284  and  _286
REMARK  115  A    between atoms: _286  and  _287
REMARK  116  A    between atoms: _286  and  _289
REMARK                            x       y       z     vdW  Elec       q    Type
REMARK                         _______ _______ _______ _____ _____    ______ ____
ROOT
ATOM      1  O   HOH     1     -15.816  34.473  25.229  0.00  0.00    +0.000 OA
ENDROOT
TORSDOF 0
REMARK  Name = ../refined-set-2016/4rsk/4rsk_pocket.pdb
REMARK  116 active torsions:
REMARK  status: ('A' for Active; 'I' for Inactive)
REMARK    1  A    between atoms: _1  and  _3
REMARK    2  A    between atoms: _3  and  _4
REMARK    3  A    between atoms: _7  and  _9
REMARK    4  A    between atoms: _9  and  _10
REMARK    5  A    between atoms: _13  and  _15
REMARK    6  A    between atoms: _15  and  _16
REMARK    7  A    between atoms: _15  and  _18
REMARK    8  A    between atoms: _18  and  _19
REMARK    9  A    between atoms: _25  and  _27
REMARK   10  A    between atoms: _27  and  _28
REMARK   11  A    between atoms: _27  and  _30
REMARK   12  A    between atoms: _30  and  _31
REMARK   13  A    between atoms: _31  and  _32
REMARK   14  A    between atoms: _37  and  _39
REMARK   15  A    between atoms: _39  and  _40
REMARK   16  A    between atoms: _39  and  _42
REMARK   17  A    between atoms: _42  and  _43
REMARK   18  A    between atoms: _48  and  _50
REMARK   19  A    between atoms: _50  and  _51
REMARK   20  A    between atoms: _50  and  _53
REMARK   21  A    between atoms: _53  and  _54
REMARK   22  A    between atoms: _54  and  _55
REMARK   23  A    between atoms: _57  and  _59
REMARK   24  A    between atoms: _59  and  _60
REMARK   25  A    between atoms: _59  and  _62
REMARK   26  A    between atoms: _62  and  _63
REMARK   27  A    between atoms: _66  and  _68
REMARK   28  A    between atoms: _68  and  _69
REMARK   29  A    between atoms: _68  and  _71
REMARK   30  A    between atoms: _71  and  _72
REMARK   31  A    between atoms: _72  and  _73
REMARK   32  A    between atoms: _73  and  _74
REMARK   33  A    between atoms: _83  and  _85
REMARK   34  A    between atoms: _85  and  _86
REMARK   35  A    between atoms: _85  and  _88
REMARK   36  A    between atoms: _88  and  _89
REMARK   37  A    between atoms: _89  and  _90
REMARK   38  A    between atoms: _90  and  _91
REMARK   39  A    between atoms: _91  and  _92
REMARK   40  A    between atoms: _97  and  _98
REMARK   41  A    between atoms: _103  and  _105
REMARK   42  A    between atoms: _105  and  _106
REMARK   43  A    between atoms: _105  and  _108
REMARK   44  A    between atoms: _111  and  _113
REMARK   45  A    between atoms: _113  and  _114
REMARK   46  A    between atoms: _113  and  _116
REMARK   47  A    between atoms: _116  and  _117
REMARK   48  A    between atoms: _122  and  _124
REMARK   49  A    between atoms: _124  and  _125
REMARK   50  A    between atoms: _124  and  _127
REMARK   51  A    between atoms: _127  and  _128
REMARK   52  A    between atoms: _131  and  _133
REMARK   53  A    between atoms: _133  and  _134
REMARK   54  A    between atoms: _133  and  _136
REMARK   55  A    between atoms: _136  and  _137
REMARK   56  A    between atoms: _143  and  _145
REMARK   57  A    between atoms: _145  and  _146
REMARK   58  A    between atoms: _145  and  _148
REMARK   59  A    between atoms: _148  and  _149
REMARK   60  A    between atoms: _152  and  _154
REMARK   61  A    between atoms: _154  and  _155
REMARK   62  A    between atoms: _154  and  _157
REMARK   63  A    between atoms: _157  and  _158
REMARK   64  A    between atoms: _161  and  _163
REMARK   65  A    between atoms: _163  and  _164
REMARK   66  A    between atoms: _163  and  _166
REMARK   67  A    between atoms: _166  and  _167
REMARK   68  A    between atoms: _170  and  _172
REMARK   69  A    between atoms: _172  and  _173
REMARK   70  A    between atoms: _172  and  _175
REMARK   71  A    between atoms: _177  and  _179
REMARK   72  A    between atoms: _179  and  _180
REMARK   73  A    between atoms: _179  and  _182
REMARK   74  A    between atoms: _182  and  _183
REMARK   75  A    between atoms: _183  and  _184
REMARK   76  A    between atoms: _184  and  _185
REMARK   77  A    between atoms: _194  and  _196
REMARK   78  A    between atoms: _196  and  _197
REMARK   79  A    between atoms: _196  and  _199
REMARK   80  A    between atoms: _199  and  _200
REMARK   81  A    between atoms: _200  and  _201
REMARK   82  A    between atoms: _201  and  _202
REMARK   83  A    between atoms: _202  and  _203
REMARK   84  A    between atoms: _207  and  _209
REMARK   85  A    between atoms: _209  and  _210
REMARK   86  A    between atoms: _209  and  _212
REMARK   87  A    between atoms: _212  and  _213
REMARK   88  A    between atoms: _216  and  _218
REMARK   89  A    between atoms: _218  and  _219
REMARK   90  A    between atoms: _218  and  _221
REMARK   91  A    between atoms: _224  and  _226
REMARK   92  A    between atoms: _226  and  _227
REMARK   93  A    between atoms: _230  and  _232
REMARK   94  A    between atoms: _232  and  _233
REMARK   95  A    between atoms: _232  and  _235
REMARK   96  A    between atoms: _238  and  _240
REMARK   97  A    between atoms: _240  and  _241
REMARK   98  A    between atoms: _240  and  _243
REMARK   99  A    between atoms: _243  and  _244
REMARK  100  A    between atoms: _249  and  _251
REMARK  101  A    between atoms: _251  and  _252
REMARK  102  A    between atoms: _251  and  _254
REMARK  103  A    between atoms: _254  and  _255
REMARK  104  A    between atoms: _261  and  _263
REMARK  105  A    between atoms: _263  and  _264
REMARK  106  A    between atoms: _263  and  _266
REMARK  107  A    between atoms: _266  and  _267
REMARK  108  A    between atoms: _270  and  _272
REMARK  109  A    between atoms: _272  and  _273
REMARK  110  A    between atoms: _276  and  _278
REMARK  111  A    between atoms: _278  and  _279
REMARK  112  A    between atoms: _278  and  _281
REMARK  113  A    between atoms: _281  and  _282
REMARK  114  A    between atoms: _284  and  _286
REMARK  115  A    between atoms: _286  and  _287
REMARK  116  A    between atoms: _286  and  _289
REMARK                            x       y       z     vdW  Elec       q    Type
REMARK                         _______ _______ _______ _____ _____    ______ ____
ROOT
ATOM      1  O   HOH     1     -22.341  41.851  28.659  0.00  0.00    +0.000 OA
ENDROOT
TORSDOF 0
REMARK  Name = ../refined-set-2016/4rsk/4rsk_pocket.pdb
REMARK  116 active torsions:
REMARK  status: ('A' for Active; 'I' for Inactive)
REMARK    1  A    between atoms: _1  and  _3
REMARK    2  A    between atoms: _3  and  _4
REMARK    3  A    between atoms: _7  and  _9
REMARK    4  A    between atoms: _9  and  _10
REMARK    5  A    between atoms: _13  and  _15
REMARK    6  A    between atoms: _15  and  _16
REMARK    7  A    between atoms: _15  and  _18
REMARK    8  A    between atoms: _18  and  _19
REMARK    9  A    between atoms: _25  and  _27
REMARK   10  A    between atoms: _27  and  _28
REMARK   11  A    between atoms: _27  and  _30
REMARK   12  A    between atoms: _30  and  _31
REMARK   13  A    between atoms: _31  and  _32
REMARK   14  A    between atoms: _37  and  _39
REMARK   15  A    between atoms: _39  and  _40
REMARK   16  A    between atoms: _39  and  _42
REMARK   17  A    between atoms: _42  and  _43
REMARK   18  A    between atoms: _48  and  _50
REMARK   19  A    between atoms: _50  and  _51
REMARK   20  A    between atoms: _50  and  _53
REMARK   21  A    between atoms: _53  and  _54
REMARK   22  A    between atoms: _54  and  _55
REMARK   23  A    between atoms: _57  and  _59
REMARK   24  A    between atoms: _59  and  _60
REMARK   25  A    between atoms: _59  and  _62
REMARK   26  A    between atoms: _62  and  _63
REMARK   27  A    between atoms: _66  and  _68
REMARK   28  A    between atoms: _68  and  _69
REMARK   29  A    between atoms: _68  and  _71
REMARK   30  A    between atoms: _71  and  _72
REMARK   31  A    between atoms: _72  and  _73
REMARK   32  A    between atoms: _73  and  _74
REMARK   33  A    between atoms: _83  and  _85
REMARK   34  A    between atoms: _85  and  _86
REMARK   35  A    between atoms: _85  and  _88
REMARK   36  A    between atoms: _88  and  _89
REMARK   37  A    between atoms: _89  and  _90
REMARK   38  A    between atoms: _90  and  _91
REMARK   39  A    between atoms: _91  and  _92
REMARK   40  A    between atoms: _97  and  _98
REMARK   41  A    between atoms: _103  and  _105
REMARK   42  A    between atoms: _105  and  _106
REMARK   43  A    between atoms: _105  and  _108
REMARK   44  A    between atoms: _111  and  _113
REMARK   45  A    between atoms: _113  and  _114
REMARK   46  A    between atoms: _113  and  _116
REMARK   47  A    between atoms: _116  and  _117
REMARK   48  A    between atoms: _122  and  _124
REMARK   49  A    between atoms: _124  and  _125
REMARK   50  A    between atoms: _124  and  _127
REMARK   51  A    between atoms: _127  and  _128
REMARK   52  A    between atoms: _131  and  _133
REMARK   53  A    between atoms: _133  and  _134
REMARK   54  A    between atoms: _133  and  _136
REMARK   55  A    between atoms: _136  and  _137
REMARK   56  A    between atoms: _143  and  _145
REMARK   57  A    between atoms: _145  and  _146
REMARK   58  A    between atoms: _145  and  _148
REMARK   59  A    between atoms: _148  and  _149
REMARK   60  A    between atoms: _152  and  _154
REMARK   61  A    between atoms: _154  and  _155
REMARK   62  A    between atoms: _154  and  _157
REMARK   63  A    between atoms: _157  and  _158
REMARK   64  A    between atoms: _161  and  _163
REMARK   65  A    between atoms: _163  and  _164
REMARK   66  A    between atoms: _163  and  _166
REMARK   67  A    between atoms: _166  and  _167
REMARK   68  A    between atoms: _170  and  _172
REMARK   69  A    between atoms: _172  and  _173
REMARK   70  A    between atoms: _172  and  _175
REMARK   71  A    between atoms: _177  and  _179
REMARK   72  A    between atoms: _179  and  _180
REMARK   73  A    between atoms: _179  and  _182
REMARK   74  A    between atoms: _182  and  _183
REMARK   75  A    between atoms: _183  and  _184
REMARK   76  A    between atoms: _184  and  _185
REMARK   77  A    between atoms: _194  and  _196
REMARK   78  A    between atoms: _196  and  _197
REMARK   79  A    between atoms: _196  and  _199
REMARK   80  A    between atoms: _199  and  _200
REMARK   81  A    between atoms: _200  and  _201
REMARK   82  A    between atoms: _201  and  _202
REMARK   83  A    between atoms: _202  and  _203
REMARK   84  A    between atoms: _207  and  _209
REMARK   85  A    between atoms: _209  and  _210
REMARK   86  A    between atoms: _209  and  _212
REMARK   87  A    between atoms: _212  and  _213
REMARK   88  A    between atoms: _216  and  _218
REMARK   89  A    between atoms: _218  and  _219
REMARK   90  A    between atoms: _218  and  _221
REMARK   91  A    between atoms: _224  and  _226
REMARK   92  A    between atoms: _226  and  _227
REMARK   93  A    between atoms: _230  and  _232
REMARK   94  A    between atoms: _232  and  _233
REMARK   95  A    between atoms: _232  and  _235
REMARK   96  A    between atoms: _238  and  _240
REMARK   97  A    between atoms: _240  and  _241
REMARK   98  A    between atoms: _240  and  _243
REMARK   99  A    between atoms: _243  and  _244
REMARK  100  A    between atoms: _249  and  _251
REMARK  101  A    between atoms: _251  and  _252
REMARK  102  A    between atoms: _251  and  _254
REMARK  103  A    between atoms: _254  and  _255
REMARK  104  A    between atoms: _261  and  _263
REMARK  105  A    between atoms: _263  and  _264
REMARK  106  A    between atoms: _263  and  _266
REMARK  107  A    between atoms: _266  and  _267
REMARK  108  A    between atoms: _270  and  _272
REMARK  109  A    between atoms: _272  and  _273
REMARK  110  A    between atoms: _276  and  _278
REMARK  111  A    between atoms: _278  and  _279
REMARK  112  A    between atoms: _278  and  _281
REMARK  113  A    between atoms: _281  and  _282
REMARK  114  A    between atoms: _284  and  _286
REMARK  115  A    between atoms: _286  and  _287
REMARK  116  A    between atoms: _286  and  _289
REMARK                            x       y       z     vdW  Elec       q    Type
REMARK                         _______ _______ _______ _____ _____    ______ ____
ROOT
ATOM      1  O   HOH     1     -17.638  44.867  22.781  0.00  0.00    +0.000 OA
ENDROOT
TORSDOF 0
REMARK  Name = ../refined-set-2016/4rsk/4rsk_pocket.pdb
REMARK  116 active torsions:
REMARK  status: ('A' for Active; 'I' for Inactive)
REMARK    1  A    between atoms: _1  and  _3
REMARK    2  A    between atoms: _3  and  _4
REMARK    3  A    between atoms: _7  and  _9
REMARK    4  A    between atoms: _9  and  _10
REMARK    5  A    between atoms: _13  and  _15
REMARK    6  A    between atoms: _15  and  _16
REMARK    7  A    between atoms: _15  and  _18
REMARK    8  A    between atoms: _18  and  _19
REMARK    9  A    between atoms: _25  and  _27
REMARK   10  A    between atoms: _27  and  _28
REMARK   11  A    between atoms: _27  and  _30
REMARK   12  A    between atoms: _30  and  _31
REMARK   13  A    between atoms: _31  and  _32
REMARK   14  A    between atoms: _37  and  _39
REMARK   15  A    between atoms: _39  and  _40
REMARK   16  A    between atoms: _39  and  _42
REMARK   17  A    between atoms: _42  and  _43
REMARK   18  A    between atoms: _48  and  _50
REMARK   19  A    between atoms: _50  and  _51
REMARK   20  A    between atoms: _50  and  _53
REMARK   21  A    between atoms: _53  and  _54
REMARK   22  A    between atoms: _54  and  _55
REMARK   23  A    between atoms: _57  and  _59
REMARK   24  A    between atoms: _59  and  _60
REMARK   25  A    between atoms: _59  and  _62
REMARK   26  A    between atoms: _62  and  _63
REMARK   27  A    between atoms: _66  and  _68
REMARK   28  A    between atoms: _68  and  _69
REMARK   29  A    between atoms: _68  and  _71
REMARK   30  A    between atoms: _71  and  _72
REMARK   31  A    between atoms: _72  and  _73
REMARK   32  A    between atoms: _73  and  _74
REMARK   33  A    between atoms: _83  and  _85
REMARK   34  A    between atoms: _85  and  _86
REMARK   35  A    between atoms: _85  and  _88
REMARK   36  A    between atoms: _88  and  _89
REMARK   37  A    between atoms: _89  and  _90
REMARK   38  A    between atoms: _90  and  _91
REMARK   39  A    between atoms: _91  and  _92
REMARK   40  A    between atoms: _97  and  _98
REMARK   41  A    between atoms: _103  and  _105
REMARK   42  A    between atoms: _105  and  _106
REMARK   43  A    between atoms: _105  and  _108
REMARK   44  A    between atoms: _111  and  _113
REMARK   45  A    between atoms: _113  and  _114
REMARK   46  A    between atoms: _113  and  _116
REMARK   47  A    between atoms: _116  and  _117
REMARK   48  A    between atoms: _122  and  _124
REMARK   49  A    between atoms: _124  and  _125
REMARK   50  A    between atoms: _124  and  _127
REMARK   51  A    between atoms: _127  and  _128
REMARK   52  A    between atoms: _131  and  _133
REMARK   53  A    between atoms: _133  and  _134
REMARK   54  A    between atoms: _133  and  _136
REMARK   55  A    between atoms: _136  and  _137
REMARK   56  A    between atoms: _143  and  _145
REMARK   57  A    between atoms: _145  and  _146
REMARK   58  A    between atoms: _145  and  _148
REMARK   59  A    between atoms: _148  and  _149
REMARK   60  A    between atoms: _152  and  _154
REMARK   61  A    between atoms: _154  and  _155
REMARK   62  A    between atoms: _154  and  _157
REMARK   63  A    between atoms: _157  and  _158
REMARK   64  A    between atoms: _161  and  _163
REMARK   65  A    between atoms: _163  and  _164
REMARK   66  A    between atoms: _163  and  _166
REMARK   67  A    between atoms: _166  and  _167
REMARK   68  A    between atoms: _170  and  _172
REMARK   69  A    between atoms: _172  and  _173
REMARK   70  A    between atoms: _172  and  _175
REMARK   71  A    between atoms: _177  and  _179
REMARK   72  A    between atoms: _179  and  _180
REMARK   73  A    between atoms: _179  and  _182
REMARK   74  A    between atoms: _182  and  _183
REMARK   75  A    between atoms: _183  and  _184
REMARK   76  A    between atoms: _184  and  _185
REMARK   77  A    between atoms: _194  and  _196
REMARK   78  A    between atoms: _196  and  _197
REMARK   79  A    between atoms: _196  and  _199
REMARK   80  A    between atoms: _199  and  _200
REMARK   81  A    between atoms: _200  and  _201
REMARK   82  A    between atoms: _201  and  _202
REMARK   83  A    between atoms: _202  and  _203
REMARK   84  A    between atoms: _207  and  _209
REMARK   85  A    between atoms: _209  and  _210
REMARK   86  A    between atoms: _209  and  _212
REMARK   87  A    between atoms: _212  and  _213
REMARK   88  A    between atoms: _216  and  _218
REMARK   89  A    between atoms: _218  and  _219
REMARK   90  A    between atoms: _218  and  _221
REMARK   91  A    between atoms: _224  and  _226
REMARK   92  A    between atoms: _226  and  _227
REMARK   93  A    between atoms: _230  and  _232
REMARK   94  A    between atoms: _232  and  _233
REMARK   95  A    between atoms: _232  and  _235
REMARK   96  A    between atoms: _238  and  _240
REMARK   97  A    between atoms: _240  and  _241
REMARK   98  A    between atoms: _240  and  _243
REMARK   99  A    between atoms: _243  and  _244
REMARK  100  A    between atoms: _249  and  _251
REMARK  101  A    between atoms: _251  and  _252
REMARK  102  A    between atoms: _251  and  _254
REMARK  103  A    between atoms: _254  and  _255
REMARK  104  A    between atoms: _261  and  _263
REMARK  105  A    between atoms: _263  and  _264
REMARK  106  A    between atoms: _263  and  _266
REMARK  107  A    between atoms: _266  and  _267
REMARK  108  A    between atoms: _270  and  _272
REMARK  109  A    between atoms: _272  and  _273
REMARK  110  A    between atoms: _276  and  _278
REMARK  111  A    between atoms: _278  and  _279
REMARK  112  A    between atoms: _278  and  _281
REMARK  113  A    between atoms: _281  and  _282
REMARK  114  A    between atoms: _284  and  _286
REMARK  115  A    between atoms: _286  and  _287
REMARK  116  A    between atoms: _286  and  _289
REMARK                            x       y       z     vdW  Elec       q    Type
REMARK                         _______ _______ _______ _____ _____    ______ ____
ROOT
ATOM      1  O   HOH     1     -20.717  42.093  30.598  0.00  0.00    +0.000 OA
ENDROOT
TORSDOF 0
REMARK  Name = ../refined-set-2016/4rsk/4rsk_pocket.pdb
REMARK  116 active torsions:
REMARK  status: ('A' for Active; 'I' for Inactive)
REMARK    1  A    between atoms: _1  and  _3
REMARK    2  A    between atoms: _3  and  _4
REMARK    3  A    between atoms: _7  and  _9
REMARK    4  A    between atoms: _9  and  _10
REMARK    5  A    between atoms: _13  and  _15
REMARK    6  A    between atoms: _15  and  _16
REMARK    7  A    between atoms: _15  and  _18
REMARK    8  A    between atoms: _18  and  _19
REMARK    9  A    between atoms: _25  and  _27
REMARK   10  A    between atoms: _27  and  _28
REMARK   11  A    between atoms: _27  and  _30
REMARK   12  A    between atoms: _30  and  _31
REMARK   13  A    between atoms: _31  and  _32
REMARK   14  A    between atoms: _37  and  _39
REMARK   15  A    between atoms: _39  and  _40
REMARK   16  A    between atoms: _39  and  _42
REMARK   17  A    between atoms: _42  and  _43
REMARK   18  A    between atoms: _48  and  _50
REMARK   19  A    between atoms: _50  and  _51
REMARK   20  A    between atoms: _50  and  _53
REMARK   21  A    between atoms: _53  and  _54
REMARK   22  A    between atoms: _54  and  _55
REMARK   23  A    between atoms: _57  and  _59
REMARK   24  A    between atoms: _59  and  _60
REMARK   25  A    between atoms: _59  and  _62
REMARK   26  A    between atoms: _62  and  _63
REMARK   27  A    between atoms: _66  and  _68
REMARK   28  A    between atoms: _68  and  _69
REMARK   29  A    between atoms: _68  and  _71
REMARK   30  A    between atoms: _71  and  _72
REMARK   31  A    between atoms: _72  and  _73
REMARK   32  A    between atoms: _73  and  _74
REMARK   33  A    between atoms: _83  and  _85
REMARK   34  A    between atoms: _85  and  _86
REMARK   35  A    between atoms: _85  and  _88
REMARK   36  A    between atoms: _88  and  _89
REMARK   37  A    between atoms: _89  and  _90
REMARK   38  A    between atoms: _90  and  _91
REMARK   39  A    between atoms: _91  and  _92
REMARK   40  A    between atoms: _97  and  _98
REMARK   41  A    between atoms: _103  and  _105
REMARK   42  A    between atoms: _105  and  _106
REMARK   43  A    between atoms: _105  and  _108
REMARK   44  A    between atoms: _111  and  _113
REMARK   45  A    between atoms: _113  and  _114
REMARK   46  A    between atoms: _113  and  _116
REMARK   47  A    between atoms: _116  and  _117
REMARK   48  A    between atoms: _122  and  _124
REMARK   49  A    between atoms: _124  and  _125
REMARK   50  A    between atoms: _124  and  _127
REMARK   51  A    between atoms: _127  and  _128
REMARK   52  A    between atoms: _131  and  _133
REMARK   53  A    between atoms: _133  and  _134
REMARK   54  A    between atoms: _133  and  _136
REMARK   55  A    between atoms: _136  and  _137
REMARK   56  A    between atoms: _143  and  _145
REMARK   57  A    between atoms: _145  and  _146
REMARK   58  A    between atoms: _145  and  _148
REMARK   59  A    between atoms: _148  and  _149
REMARK   60  A    between atoms: _152  and  _154
REMARK   61  A    between atoms: _154  and  _155
REMARK   62  A    between atoms: _154  and  _157
REMARK   63  A    between atoms: _157  and  _158
REMARK   64  A    between atoms: _161  and  _163
REMARK   65  A    between atoms: _163  and  _164
REMARK   66  A    between atoms: _163  and  _166
REMARK   67  A    between atoms: _166  and  _167
REMARK   68  A    between atoms: _170  and  _172
REMARK   69  A    between atoms: _172  and  _173
REMARK   70  A    between atoms: _172  and  _175
REMARK   71  A    between atoms: _177  and  _179
REMARK   72  A    between atoms: _179  and  _180
REMARK   73  A    between atoms: _179  and  _182
REMARK   74  A    between atoms: _182  and  _183
REMARK   75  A    between atoms: _183  and  _184
REMARK   76  A    between atoms: _184  and  _185
REMARK   77  A    between atoms: _194  and  _196
REMARK   78  A    between atoms: _196  and  _197
REMARK   79  A    between atoms: _196  and  _199
REMARK   80  A    between atoms: _199  and  _200
REMARK   81  A    between atoms: _200  and  _201
REMARK   82  A    between atoms: _201  and  _202
REMARK   83  A    between atoms: _202  and  _203
REMARK   84  A    between atoms: _207  and  _209
REMARK   85  A    between atoms: _209  and  _210
REMARK   86  A    between atoms: _209  and  _212
REMARK   87  A    between atoms: _212  and  _213
REMARK   88  A    between atoms: _216  and  _218
REMARK   89  A    between atoms: _218  and  _219
REMARK   90  A    between atoms: _218  and  _221
REMARK   91  A    between atoms: _224  and  _226
REMARK   92  A    between atoms: _226  and  _227
REMARK   93  A    between atoms: _230  and  _232
REMARK   94  A    between atoms: _232  and  _233
REMARK   95  A    between atoms: _232  and  _235
REMARK   96  A    between atoms: _238  and  _240
REMARK   97  A    between atoms: _240  and  _241
REMARK   98  A    between atoms: _240  and  _243
REMARK   99  A    between atoms: _243  and  _244
REMARK  100  A    between atoms: _249  and  _251
REMARK  101  A    between atoms: _251  and  _252
REMARK  102  A    between atoms: _251  and  _254
REMARK  103  A    between atoms: _254  and  _255
REMARK  104  A    between atoms: _261  and  _263
REMARK  105  A    between atoms: _263  and  _264
REMARK  106  A    between atoms: _263  and  _266
REMARK  107  A    between atoms: _266  and  _267
REMARK  108  A    between atoms: _270  and  _272
REMARK  109  A    between atoms: _272  and  _273
REMARK  110  A    between atoms: _276  and  _278
REMARK  111  A    between atoms: _278  and  _279
REMARK  112  A    between atoms: _278  and  _281
REMARK  113  A    between atoms: _281  and  _282
REMARK  114  A    between atoms: _284  and  _286
REMARK  115  A    between atoms: _286  and  _287
REMARK  116  A    between atoms: _286  and  _289
REMARK                            x       y       z     vdW  Elec       q    Type
REMARK                         _______ _______ _______ _____ _____    ______ ____
ROOT
ATOM      1  O   HOH     1     -16.899  44.630  20.190  0.00  0.00    +0.000 OA
ENDROOT
TORSDOF 0
REMARK  Name = ../refined-set-2016/4rsk/4rsk_pocket.pdb
REMARK  116 active torsions:
REMARK  status: ('A' for Active; 'I' for Inactive)
REMARK    1  A    between atoms: _1  and  _3
REMARK    2  A    between atoms: _3  and  _4
REMARK    3  A    between atoms: _7  and  _9
REMARK    4  A    between atoms: _9  and  _10
REMARK    5  A    between atoms: _13  and  _15
REMARK    6  A    between atoms: _15  and  _16
REMARK    7  A    between atoms: _15  and  _18
REMARK    8  A    between atoms: _18  and  _19
REMARK    9  A    between atoms: _25  and  _27
REMARK   10  A    between atoms: _27  and  _28
REMARK   11  A    between atoms: _27  and  _30
REMARK   12  A    between atoms: _30  and  _31
REMARK   13  A    between atoms: _31  and  _32
REMARK   14  A    between atoms: _37  and  _39
REMARK   15  A    between atoms: _39  and  _40
REMARK   16  A    between atoms: _39  and  _42
REMARK   17  A    between atoms: _42  and  _43
REMARK   18  A    between atoms: _48  and  _50
REMARK   19  A    between atoms: _50  and  _51
REMARK   20  A    between atoms: _50  and  _53
REMARK   21  A    between atoms: _53  and  _54
REMARK   22  A    between atoms: _54  and  _55
REMARK   23  A    between atoms: _57  and  _59
REMARK   24  A    between atoms: _59  and  _60
REMARK   25  A    between atoms: _59  and  _62
REMARK   26  A    between atoms: _62  and  _63
REMARK   27  A    between atoms: _66  and  _68
REMARK   28  A    between atoms: _68  and  _69
REMARK   29  A    between atoms: _68  and  _71
REMARK   30  A    between atoms: _71  and  _72
REMARK   31  A    between atoms: _72  and  _73
REMARK   32  A    between atoms: _73  and  _74
REMARK   33  A    between atoms: _83  and  _85
REMARK   34  A    between atoms: _85  and  _86
REMARK   35  A    between atoms: _85  and  _88
REMARK   36  A    between atoms: _88  and  _89
REMARK   37  A    between atoms: _89  and  _90
REMARK   38  A    between atoms: _90  and  _91
REMARK   39  A    between atoms: _91  and  _92
REMARK   40  A    between atoms: _97  and  _98
REMARK   41  A    between atoms: _103  and  _105
REMARK   42  A    between atoms: _105  and  _106
REMARK   43  A    between atoms: _105  and  _108
REMARK   44  A    between atoms: _111  and  _113
REMARK   45  A    between atoms: _113  and  _114
REMARK   46  A    between atoms: _113  and  _116
REMARK   47  A    between atoms: _116  and  _117
REMARK   48  A    between atoms: _122  and  _124
REMARK   49  A    between atoms: _124  and  _125
REMARK   50  A    between atoms: _124  and  _127
REMARK   51  A    between atoms: _127  and  _128
REMARK   52  A    between atoms: _131  and  _133
REMARK   53  A    between atoms: _133  and  _134
REMARK   54  A    between atoms: _133  and  _136
REMARK   55  A    between atoms: _136  and  _137
REMARK   56  A    between atoms: _143  and  _145
REMARK   57  A    between atoms: _145  and  _146
REMARK   58  A    between atoms: _145  and  _148
REMARK   59  A    between atoms: _148  and  _149
REMARK   60  A    between atoms: _152  and  _154
REMARK   61  A    between atoms: _154  and  _155
REMARK   62  A    between atoms: _154  and  _157
REMARK   63  A    between atoms: _157  and  _158
REMARK   64  A    between atoms: _161  and  _163
REMARK   65  A    between atoms: _163  and  _164
REMARK   66  A    between atoms: _163  and  _166
REMARK   67  A    between atoms: _166  and  _167
REMARK   68  A    between atoms: _170  and  _172
REMARK   69  A    between atoms: _172  and  _173
REMARK   70  A    between atoms: _172  and  _175
REMARK   71  A    between atoms: _177  and  _179
REMARK   72  A    between atoms: _179  and  _180
REMARK   73  A    between atoms: _179  and  _182
REMARK   74  A    between atoms: _182  and  _183
REMARK   75  A    between atoms: _183  and  _184
REMARK   76  A    between atoms: _184  and  _185
REMARK   77  A    between atoms: _194  and  _196
REMARK   78  A    between atoms: _196  and  _197
REMARK   79  A    between atoms: _196  and  _199
REMARK   80  A    between atoms: _199  and  _200
REMARK   81  A    between atoms: _200  and  _201
REMARK   82  A    between atoms: _201  and  _202
REMARK   83  A    between atoms: _202  and  _203
REMARK   84  A    between atoms: _207  and  _209
REMARK   85  A    between atoms: _209  and  _210
REMARK   86  A    between atoms: _209  and  _212
REMARK   87  A    between atoms: _212  and  _213
REMARK   88  A    between atoms: _216  and  _218
REMARK   89  A    between atoms: _218  and  _219
REMARK   90  A    between atoms: _218  and  _221
REMARK   91  A    between atoms: _224  and  _226
REMARK   92  A    between atoms: _226  and  _227
REMARK   93  A    between atoms: _230  and  _232
REMARK   94  A    between atoms: _232  and  _233
REMARK   95  A    between atoms: _232  and  _235
REMARK   96  A    between atoms: _238  and  _240
REMARK   97  A    between atoms: _240  and  _241
REMARK   98  A    between atoms: _240  and  _243
REMARK   99  A    between atoms: _243  and  _244
REMARK  100  A    between atoms: _249  and  _251
REMARK  101  A    between atoms: _251  and  _252
REMARK  102  A    between atoms: _251  and  _254
REMARK  103  A    between atoms: _254  and  _255
REMARK  104  A    between atoms: _261  and  _263
REMARK  105  A    between atoms: _263  and  _264
REMARK  106  A    between atoms: _263  and  _266
REMARK  107  A    between atoms: _266  and  _267
REMARK  108  A    between atoms: _270  and  _272
REMARK  109  A    between atoms: _272  and  _273
REMARK  110  A    between atoms: _276  and  _278
REMARK  111  A    between atoms: _278  and  _279
REMARK  112  A    between atoms: _278  and  _281
REMARK  113  A    between atoms: _281  and  _282
REMARK  114  A    between atoms: _284  and  _286
REMARK  115  A    between atoms: _286  and  _287
REMARK  116  A    between atoms: _286  and  _289
REMARK                            x       y       z     vdW  Elec       q    Type
REMARK                         _______ _______ _______ _____ _____    ______ ____
ROOT
ATOM      1  O   HOH     1     -18.019  34.207  23.030  0.00  0.00    +0.000 OA
ENDROOT
TORSDOF 0
REMARK  Name = ../refined-set-2016/4rsk/4rsk_pocket.pdb
REMARK  116 active torsions:
REMARK  status: ('A' for Active; 'I' for Inactive)
REMARK    1  A    between atoms: _1  and  _3
REMARK    2  A    between atoms: _3  and  _4
REMARK    3  A    between atoms: _7  and  _9
REMARK    4  A    between atoms: _9  and  _10
REMARK    5  A    between atoms: _13  and  _15
REMARK    6  A    between atoms: _15  and  _16
REMARK    7  A    between atoms: _15  and  _18
REMARK    8  A    between atoms: _18  and  _19
REMARK    9  A    between atoms: _25  and  _27
REMARK   10  A    between atoms: _27  and  _28
REMARK   11  A    between atoms: _27  and  _30
REMARK   12  A    between atoms: _30  and  _31
REMARK   13  A    between atoms: _31  and  _32
REMARK   14  A    between atoms: _37  and  _39
REMARK   15  A    between atoms: _39  and  _40
REMARK   16  A    between atoms: _39  and  _42
REMARK   17  A    between atoms: _42  and  _43
REMARK   18  A    between atoms: _48  and  _50
REMARK   19  A    between atoms: _50  and  _51
REMARK   20  A    between atoms: _50  and  _53
REMARK   21  A    between atoms: _53  and  _54
REMARK   22  A    between atoms: _54  and  _55
REMARK   23  A    between atoms: _57  and  _59
REMARK   24  A    between atoms: _59  and  _60
REMARK   25  A    between atoms: _59  and  _62
REMARK   26  A    between atoms: _62  and  _63
REMARK   27  A    between atoms: _66  and  _68
REMARK   28  A    between atoms: _68  and  _69
REMARK   29  A    between atoms: _68  and  _71
REMARK   30  A    between atoms: _71  and  _72
REMARK   31  A    between atoms: _72  and  _73
REMARK   32  A    between atoms: _73  and  _74
REMARK   33  A    between atoms: _83  and  _85
REMARK   34  A    between atoms: _85  and  _86
REMARK   35  A    between atoms: _85  and  _88
REMARK   36  A    between atoms: _88  and  _89
REMARK   37  A    between atoms: _89  and  _90
REMARK   38  A    between atoms: _90  and  _91
REMARK   39  A    between atoms: _91  and  _92
REMARK   40  A    between atoms: _97  and  _98
REMARK   41  A    between atoms: _103  and  _105
REMARK   42  A    between atoms: _105  and  _106
REMARK   43  A    between atoms: _105  and  _108
REMARK   44  A    between atoms: _111  and  _113
REMARK   45  A    between atoms: _113  and  _114
REMARK   46  A    between atoms: _113  and  _116
REMARK   47  A    between atoms: _116  and  _117
REMARK   48  A    between atoms: _122  and  _124
REMARK   49  A    between atoms: _124  and  _125
REMARK   50  A    between atoms: _124  and  _127
REMARK   51  A    between atoms: _127  and  _128
REMARK   52  A    between atoms: _131  and  _133
REMARK   53  A    between atoms: _133  and  _134
REMARK   54  A    between atoms: _133  and  _136
REMARK   55  A    between atoms: _136  and  _137
REMARK   56  A    between atoms: _143  and  _145
REMARK   57  A    between atoms: _145  and  _146
REMARK   58  A    between atoms: _145  and  _148
REMARK   59  A    between atoms: _148  and  _149
REMARK   60  A    between atoms: _152  and  _154
REMARK   61  A    between atoms: _154  and  _155
REMARK   62  A    between atoms: _154  and  _157
REMARK   63  A    between atoms: _157  and  _158
REMARK   64  A    between atoms: _161  and  _163
REMARK   65  A    between atoms: _163  and  _164
REMARK   66  A    between atoms: _163  and  _166
REMARK   67  A    between atoms: _166  and  _167
REMARK   68  A    between atoms: _170  and  _172
REMARK   69  A    between atoms: _172  and  _173
REMARK   70  A    between atoms: _172  and  _175
REMARK   71  A    between atoms: _177  and  _179
REMARK   72  A    between atoms: _179  and  _180
REMARK   73  A    between atoms: _179  and  _182
REMARK   74  A    between atoms: _182  and  _183
REMARK   75  A    between atoms: _183  and  _184
REMARK   76  A    between atoms: _184  and  _185
REMARK   77  A    between atoms: _194  and  _196
REMARK   78  A    between atoms: _196  and  _197
REMARK   79  A    between atoms: _196  and  _199
REMARK   80  A    between atoms: _199  and  _200
REMARK   81  A    between atoms: _200  and  _201
REMARK   82  A    between atoms: _201  and  _202
REMARK   83  A    between atoms: _202  and  _203
REMARK   84  A    between atoms: _207  and  _209
REMARK   85  A    between atoms: _209  and  _210
REMARK   86  A    between atoms: _209  and  _212
REMARK   87  A    between atoms: _212  and  _213
REMARK   88  A    between atoms: _216  and  _218
REMARK   89  A    between atoms: _218  and  _219
REMARK   90  A    between atoms: _218  and  _221
REMARK   91  A    between atoms: _224  and  _226
REMARK   92  A    between atoms: _226  and  _227
REMARK   93  A    between atoms: _230  and  _232
REMARK   94  A    between atoms: _232  and  _233
REMARK   95  A    between atoms: _232  and  _235
REMARK   96  A    between atoms: _238  and  _240
REMARK   97  A    between atoms: _240  and  _241
REMARK   98  A    between atoms: _240  and  _243
REMARK   99  A    between atoms: _243  and  _244
REMARK  100  A    between atoms: _249  and  _251
REMARK  101  A    between atoms: _251  and  _252
REMARK  102  A    between atoms: _251  and  _254
REMARK  103  A    between atoms: _254  and  _255
REMARK  104  A    between atoms: _261  and  _263
REMARK  105  A    between atoms: _263  and  _264
REMARK  106  A    between atoms: _263  and  _266
REMARK  107  A    between atoms: _266  and  _267
REMARK  108  A    between atoms: _270  and  _272
REMARK  109  A    between atoms: _272  and  _273
REMARK  110  A    between atoms: _276  and  _278
REMARK  111  A    between atoms: _278  and  _279
REMARK  112  A    between atoms: _278  and  _281
REMARK  113  A    between atoms: _281  and  _282
REMARK  114  A    between atoms: _284  and  _286
REMARK  115  A    between atoms: _286  and  _287
REMARK  116  A    between atoms: _286  and  _289
REMARK                            x       y       z     vdW  Elec       q    Type
REMARK                         _______ _______ _______ _____ _____    ______ ____
ROOT
ATOM      1  O   HOH     1     -15.165  49.061  27.757  0.00  0.00    +0.000 OA
ENDROOT
TORSDOF 0
REMARK  Name = ../refined-set-2016/4rsk/4rsk_pocket.pdb
REMARK  116 active torsions:
REMARK  status: ('A' for Active; 'I' for Inactive)
REMARK    1  A    between atoms: _1  and  _3
REMARK    2  A    between atoms: _3  and  _4
REMARK    3  A    between atoms: _7  and  _9
REMARK    4  A    between atoms: _9  and  _10
REMARK    5  A    between atoms: _13  and  _15
REMARK    6  A    between atoms: _15  and  _16
REMARK    7  A    between atoms: _15  and  _18
REMARK    8  A    between atoms: _18  and  _19
REMARK    9  A    between atoms: _25  and  _27
REMARK   10  A    between atoms: _27  and  _28
REMARK   11  A    between atoms: _27  and  _30
REMARK   12  A    between atoms: _30  and  _31
REMARK   13  A    between atoms: _31  and  _32
REMARK   14  A    between atoms: _37  and  _39
REMARK   15  A    between atoms: _39  and  _40
REMARK   16  A    between atoms: _39  and  _42
REMARK   17  A    between atoms: _42  and  _43
REMARK   18  A    between atoms: _48  and  _50
REMARK   19  A    between atoms: _50  and  _51
REMARK   20  A    between atoms: _50  and  _53
REMARK   21  A    between atoms: _53  and  _54
REMARK   22  A    between atoms: _54  and  _55
REMARK   23  A    between atoms: _57  and  _59
REMARK   24  A    between atoms: _59  and  _60
REMARK   25  A    between atoms: _59  and  _62
REMARK   26  A    between atoms: _62  and  _63
REMARK   27  A    between atoms: _66  and  _68
REMARK   28  A    between atoms: _68  and  _69
REMARK   29  A    between atoms: _68  and  _71
REMARK   30  A    between atoms: _71  and  _72
REMARK   31  A    between atoms: _72  and  _73
REMARK   32  A    between atoms: _73  and  _74
REMARK   33  A    between atoms: _83  and  _85
REMARK   34  A    between atoms: _85  and  _86
REMARK   35  A    between atoms: _85  and  _88
REMARK   36  A    between atoms: _88  and  _89
REMARK   37  A    between atoms: _89  and  _90
REMARK   38  A    between atoms: _90  and  _91
REMARK   39  A    between atoms: _91  and  _92
REMARK   40  A    between atoms: _97  and  _98
REMARK   41  A    between atoms: _103  and  _105
REMARK   42  A    between atoms: _105  and  _106
REMARK   43  A    between atoms: _105  and  _108
REMARK   44  A    between atoms: _111  and  _113
REMARK   45  A    between atoms: _113  and  _114
REMARK   46  A    between atoms: _113  and  _116
REMARK   47  A    between atoms: _116  and  _117
REMARK   48  A    between atoms: _122  and  _124
REMARK   49  A    between atoms: _124  and  _125
REMARK   50  A    between atoms: _124  and  _127
REMARK   51  A    between atoms: _127  and  _128
REMARK   52  A    between atoms: _131  and  _133
REMARK   53  A    between atoms: _133  and  _134
REMARK   54  A    between atoms: _133  and  _136
REMARK   55  A    between atoms: _136  and  _137
REMARK   56  A    between atoms: _143  and  _145
REMARK   57  A    between atoms: _145  and  _146
REMARK   58  A    between atoms: _145  and  _148
REMARK   59  A    between atoms: _148  and  _149
REMARK   60  A    between atoms: _152  and  _154
REMARK   61  A    between atoms: _154  and  _155
REMARK   62  A    between atoms: _154  and  _157
REMARK   63  A    between atoms: _157  and  _158
REMARK   64  A    between atoms: _161  and  _163
REMARK   65  A    between atoms: _163  and  _164
REMARK   66  A    between atoms: _163  and  _166
REMARK   67  A    between atoms: _166  and  _167
REMARK   68  A    between atoms: _170  and  _172
REMARK   69  A    between atoms: _172  and  _173
REMARK   70  A    between atoms: _172  and  _175
REMARK   71  A    between atoms: _177  and  _179
REMARK   72  A    between atoms: _179  and  _180
REMARK   73  A    between atoms: _179  and  _182
REMARK   74  A    between atoms: _182  and  _183
REMARK   75  A    between atoms: _183  and  _184
REMARK   76  A    between atoms: _184  and  _185
REMARK   77  A    between atoms: _194  and  _196
REMARK   78  A    between atoms: _196  and  _197
REMARK   79  A    between atoms: _196  and  _199
REMARK   80  A    between atoms: _199  and  _200
REMARK   81  A    between atoms: _200  and  _201
REMARK   82  A    between atoms: _201  and  _202
REMARK   83  A    between atoms: _202  and  _203
REMARK   84  A    between atoms: _207  and  _209
REMARK   85  A    between atoms: _209  and  _210
REMARK   86  A    between atoms: _209  and  _212
REMARK   87  A    between atoms: _212  and  _213
REMARK   88  A    between atoms: _216  and  _218
REMARK   89  A    between atoms: _218  and  _219
REMARK   90  A    between atoms: _218  and  _221
REMARK   91  A    between atoms: _224  and  _226
REMARK   92  A    between atoms: _226  and  _227
REMARK   93  A    between atoms: _230  and  _232
REMARK   94  A    between atoms: _232  and  _233
REMARK   95  A    between atoms: _232  and  _235
REMARK   96  A    between atoms: _238  and  _240
REMARK   97  A    between atoms: _240  and  _241
REMARK   98  A    between atoms: _240  and  _243
REMARK   99  A    between atoms: _243  and  _244
REMARK  100  A    between atoms: _249  and  _251
REMARK  101  A    between atoms: _251  and  _252
REMARK  102  A    between atoms: _251  and  _254
REMARK  103  A    between atoms: _254  and  _255
REMARK  104  A    between atoms: _261  and  _263
REMARK  105  A    between atoms: _263  and  _264
REMARK  106  A    between atoms: _263  and  _266
REMARK  107  A    between atoms: _266  and  _267
REMARK  108  A    between atoms: _270  and  _272
REMARK  109  A    between atoms: _272  and  _273
REMARK  110  A    between atoms: _276  and  _278
REMARK  111  A    between atoms: _278  and  _279
REMARK  112  A    between atoms: _278  and  _281
REMARK  113  A    between atoms: _281  and  _282
REMARK  114  A    between atoms: _284  and  _286
REMARK  115  A    between atoms: _286  and  _287
REMARK  116  A    between atoms: _286  and  _289
REMARK                            x       y       z     vdW  Elec       q    Type
REMARK                         _______ _______ _______ _____ _____    ______ ____
ROOT
ATOM      1  O   HOH     1     -20.590  38.164  18.809  0.00  0.00    +0.000 OA
ENDROOT
TORSDOF 0
REMARK  Name = ../refined-set-2016/4rsk/4rsk_pocket.pdb
REMARK  116 active torsions:
REMARK  status: ('A' for Active; 'I' for Inactive)
REMARK    1  A    between atoms: _1  and  _3
REMARK    2  A    between atoms: _3  and  _4
REMARK    3  A    between atoms: _7  and  _9
REMARK    4  A    between atoms: _9  and  _10
REMARK    5  A    between atoms: _13  and  _15
REMARK    6  A    between atoms: _15  and  _16
REMARK    7  A    between atoms: _15  and  _18
REMARK    8  A    between atoms: _18  and  _19
REMARK    9  A    between atoms: _25  and  _27
REMARK   10  A    between atoms: _27  and  _28
REMARK   11  A    between atoms: _27  and  _30
REMARK   12  A    between atoms: _30  and  _31
REMARK   13  A    between atoms: _31  and  _32
REMARK   14  A    between atoms: _37  and  _39
REMARK   15  A    between atoms: _39  and  _40
REMARK   16  A    between atoms: _39  and  _42
REMARK   17  A    between atoms: _42  and  _43
REMARK   18  A    between atoms: _48  and  _50
REMARK   19  A    between atoms: _50  and  _51
REMARK   20  A    between atoms: _50  and  _53
REMARK   21  A    between atoms: _53  and  _54
REMARK   22  A    between atoms: _54  and  _55
REMARK   23  A    between atoms: _57  and  _59
REMARK   24  A    between atoms: _59  and  _60
REMARK   25  A    between atoms: _59  and  _62
REMARK   26  A    between atoms: _62  and  _63
REMARK   27  A    between atoms: _66  and  _68
REMARK   28  A    between atoms: _68  and  _69
REMARK   29  A    between atoms: _68  and  _71
REMARK   30  A    between atoms: _71  and  _72
REMARK   31  A    between atoms: _72  and  _73
REMARK   32  A    between atoms: _73  and  _74
REMARK   33  A    between atoms: _83  and  _85
REMARK   34  A    between atoms: _85  and  _86
REMARK   35  A    between atoms: _85  and  _88
REMARK   36  A    between atoms: _88  and  _89
REMARK   37  A    between atoms: _89  and  _90
REMARK   38  A    between atoms: _90  and  _91
REMARK   39  A    between atoms: _91  and  _92
REMARK   40  A    between atoms: _97  and  _98
REMARK   41  A    between atoms: _103  and  _105
REMARK   42  A    between atoms: _105  and  _106
REMARK   43  A    between atoms: _105  and  _108
REMARK   44  A    between atoms: _111  and  _113
REMARK   45  A    between atoms: _113  and  _114
REMARK   46  A    between atoms: _113  and  _116
REMARK   47  A    between atoms: _116  and  _117
REMARK   48  A    between atoms: _122  and  _124
REMARK   49  A    between atoms: _124  and  _125
REMARK   50  A    between atoms: _124  and  _127
REMARK   51  A    between atoms: _127  and  _128
REMARK   52  A    between atoms: _131  and  _133
REMARK   53  A    between atoms: _133  and  _134
REMARK   54  A    between atoms: _133  and  _136
REMARK   55  A    between atoms: _136  and  _137
REMARK   56  A    between atoms: _143  and  _145
REMARK   57  A    between atoms: _145  and  _146
REMARK   58  A    between atoms: _145  and  _148
REMARK   59  A    between atoms: _148  and  _149
REMARK   60  A    between atoms: _152  and  _154
REMARK   61  A    between atoms: _154  and  _155
REMARK   62  A    between atoms: _154  and  _157
REMARK   63  A    between atoms: _157  and  _158
REMARK   64  A    between atoms: _161  and  _163
REMARK   65  A    between atoms: _163  and  _164
REMARK   66  A    between atoms: _163  and  _166
REMARK   67  A    between atoms: _166  and  _167
REMARK   68  A    between atoms: _170  and  _172
REMARK   69  A    between atoms: _172  and  _173
REMARK   70  A    between atoms: _172  and  _175
REMARK   71  A    between atoms: _177  and  _179
REMARK   72  A    between atoms: _179  and  _180
REMARK   73  A    between atoms: _179  and  _182
REMARK   74  A    between atoms: _182  and  _183
REMARK   75  A    between atoms: _183  and  _184
REMARK   76  A    between atoms: _184  and  _185
REMARK   77  A    between atoms: _194  and  _196
REMARK   78  A    between atoms: _196  and  _197
REMARK   79  A    between atoms: _196  and  _199
REMARK   80  A    between atoms: _199  and  _200
REMARK   81  A    between atoms: _200  and  _201
REMARK   82  A    between atoms: _201  and  _202
REMARK   83  A    between atoms: _202  and  _203
REMARK   84  A    between atoms: _207  and  _209
REMARK   85  A    between atoms: _209  and  _210
REMARK   86  A    between atoms: _209  and  _212
REMARK   87  A    between atoms: _212  and  _213
REMARK   88  A    between atoms: _216  and  _218
REMARK   89  A    between atoms: _218  and  _219
REMARK   90  A    between atoms: _218  and  _221
REMARK   91  A    between atoms: _224  and  _226
REMARK   92  A    between atoms: _226  and  _227
REMARK   93  A    between atoms: _230  and  _232
REMARK   94  A    between atoms: _232  and  _233
REMARK   95  A    between atoms: _232  and  _235
REMARK   96  A    between atoms: _238  and  _240
REMARK   97  A    between atoms: _240  and  _241
REMARK   98  A    between atoms: _240  and  _243
REMARK   99  A    between atoms: _243  and  _244
REMARK  100  A    between atoms: _249  and  _251
REMARK  101  A    between atoms: _251  and  _252
REMARK  102  A    between atoms: _251  and  _254
REMARK  103  A    between atoms: _254  and  _255
REMARK  104  A    between atoms: _261  and  _263
REMARK  105  A    between atoms: _263  and  _264
REMARK  106  A    between atoms: _263  and  _266
REMARK  107  A    between atoms: _266  and  _267
REMARK  108  A    between atoms: _270  and  _272
REMARK  109  A    between atoms: _272  and  _273
REMARK  110  A    between atoms: _276  and  _278
REMARK  111  A    between atoms: _278  and  _279
REMARK  112  A    between atoms: _278  and  _281
REMARK  113  A    between atoms: _281  and  _282
REMARK  114  A    between atoms: _284  and  _286
REMARK  115  A    between atoms: _286  and  _287
REMARK  116  A    between atoms: _286  and  _289
REMARK                            x       y       z     vdW  Elec       q    Type
REMARK                         _______ _______ _______ _____ _____    ______ ____
ROOT
ATOM      1  O   HOH     1     -18.737  32.381  19.082  0.00  0.00    +0.000 OA
ENDROOT
TORSDOF 0
REMARK  Name = ../refined-set-2016/4rsk/4rsk_pocket.pdb
REMARK  116 active torsions:
REMARK  status: ('A' for Active; 'I' for Inactive)
REMARK    1  A    between atoms: _1  and  _3
REMARK    2  A    between atoms: _3  and  _4
REMARK    3  A    between atoms: _7  and  _9
REMARK    4  A    between atoms: _9  and  _10
REMARK    5  A    between atoms: _13  and  _15
REMARK    6  A    between atoms: _15  and  _16
REMARK    7  A    between atoms: _15  and  _18
REMARK    8  A    between atoms: _18  and  _19
REMARK    9  A    between atoms: _25  and  _27
REMARK   10  A    between atoms: _27  and  _28
REMARK   11  A    between atoms: _27  and  _30
REMARK   12  A    between atoms: _30  and  _31
REMARK   13  A    between atoms: _31  and  _32
REMARK   14  A    between atoms: _37  and  _39
REMARK   15  A    between atoms: _39  and  _40
REMARK   16  A    between atoms: _39  and  _42
REMARK   17  A    between atoms: _42  and  _43
REMARK   18  A    between atoms: _48  and  _50
REMARK   19  A    between atoms: _50  and  _51
REMARK   20  A    between atoms: _50  and  _53
REMARK   21  A    between atoms: _53  and  _54
REMARK   22  A    between atoms: _54  and  _55
REMARK   23  A    between atoms: _57  and  _59
REMARK   24  A    between atoms: _59  and  _60
REMARK   25  A    between atoms: _59  and  _62
REMARK   26  A    between atoms: _62  and  _63
REMARK   27  A    between atoms: _66  and  _68
REMARK   28  A    between atoms: _68  and  _69
REMARK   29  A    between atoms: _68  and  _71
REMARK   30  A    between atoms: _71  and  _72
REMARK   31  A    between atoms: _72  and  _73
REMARK   32  A    between atoms: _73  and  _74
REMARK   33  A    between atoms: _83  and  _85
REMARK   34  A    between atoms: _85  and  _86
REMARK   35  A    between atoms: _85  and  _88
REMARK   36  A    between atoms: _88  and  _89
REMARK   37  A    between atoms: _89  and  _90
REMARK   38  A    between atoms: _90  and  _91
REMARK   39  A    between atoms: _91  and  _92
REMARK   40  A    between atoms: _97  and  _98
REMARK   41  A    between atoms: _103  and  _105
REMARK   42  A    between atoms: _105  and  _106
REMARK   43  A    between atoms: _105  and  _108
REMARK   44  A    between atoms: _111  and  _113
REMARK   45  A    between atoms: _113  and  _114
REMARK   46  A    between atoms: _113  and  _116
REMARK   47  A    between atoms: _116  and  _117
REMARK   48  A    between atoms: _122  and  _124
REMARK   49  A    between atoms: _124  and  _125
REMARK   50  A    between atoms: _124  and  _127
REMARK   51  A    between atoms: _127  and  _128
REMARK   52  A    between atoms: _131  and  _133
REMARK   53  A    between atoms: _133  and  _134
REMARK   54  A    between atoms: _133  and  _136
REMARK   55  A    between atoms: _136  and  _137
REMARK   56  A    between atoms: _143  and  _145
REMARK   57  A    between atoms: _145  and  _146
REMARK   58  A    between atoms: _145  and  _148
REMARK   59  A    between atoms: _148  and  _149
REMARK   60  A    between atoms: _152  and  _154
REMARK   61  A    between atoms: _154  and  _155
REMARK   62  A    between atoms: _154  and  _157
REMARK   63  A    between atoms: _157  and  _158
REMARK   64  A    between atoms: _161  and  _163
REMARK   65  A    between atoms: _163  and  _164
REMARK   66  A    between atoms: _163  and  _166
REMARK   67  A    between atoms: _166  and  _167
REMARK   68  A    between atoms: _170  and  _172
REMARK   69  A    between atoms: _172  and  _173
REMARK   70  A    between atoms: _172  and  _175
REMARK   71  A    between atoms: _177  and  _179
REMARK   72  A    between atoms: _179  and  _180
REMARK   73  A    between atoms: _179  and  _182
REMARK   74  A    between atoms: _182  and  _183
REMARK   75  A    between atoms: _183  and  _184
REMARK   76  A    between atoms: _184  and  _185
REMARK   77  A    between atoms: _194  and  _196
REMARK   78  A    between atoms: _196  and  _197
REMARK   79  A    between atoms: _196  and  _199
REMARK   80  A    between atoms: _199  and  _200
REMARK   81  A    between atoms: _200  and  _201
REMARK   82  A    between atoms: _201  and  _202
REMARK   83  A    between atoms: _202  and  _203
REMARK   84  A    between atoms: _207  and  _209
REMARK   85  A    between atoms: _209  and  _210
REMARK   86  A    between atoms: _209  and  _212
REMARK   87  A    between atoms: _212  and  _213
REMARK   88  A    between atoms: _216  and  _218
REMARK   89  A    between atoms: _218  and  _219
REMARK   90  A    between atoms: _218  and  _221
REMARK   91  A    between atoms: _224  and  _226
REMARK   92  A    between atoms: _226  and  _227
REMARK   93  A    between atoms: _230  and  _232
REMARK   94  A    between atoms: _232  and  _233
REMARK   95  A    between atoms: _232  and  _235
REMARK   96  A    between atoms: _238  and  _240
REMARK   97  A    between atoms: _240  and  _241
REMARK   98  A    between atoms: _240  and  _243
REMARK   99  A    between atoms: _243  and  _244
REMARK  100  A    between atoms: _249  and  _251
REMARK  101  A    between atoms: _251  and  _252
REMARK  102  A    between atoms: _251  and  _254
REMARK  103  A    between atoms: _254  and  _255
REMARK  104  A    between atoms: _261  and  _263
REMARK  105  A    between atoms: _263  and  _264
REMARK  106  A    between atoms: _263  and  _266
REMARK  107  A    between atoms: _266  and  _267
REMARK  108  A    between atoms: _270  and  _272
REMARK  109  A    between atoms: _272  and  _273
REMARK  110  A    between atoms: _276  and  _278
REMARK  111  A    between atoms: _278  and  _279
REMARK  112  A    between atoms: _278  and  _281
REMARK  113  A    between atoms: _281  and  _282
REMARK  114  A    between atoms: _284  and  _286
REMARK  115  A    between atoms: _286  and  _287
REMARK  116  A    between atoms: _286  and  _289
REMARK                            x       y       z     vdW  Elec       q    Type
REMARK                         _______ _______ _______ _____ _____    ______ ____
ROOT
ATOM      1  O   HOH     1     -17.475  46.467  29.125  0.00  0.00    +0.000 OA
ENDROOT
TORSDOF 0
REMARK  Name = ../refined-set-2016/4rsk/4rsk_pocket.pdb
REMARK  116 active torsions:
REMARK  status: ('A' for Active; 'I' for Inactive)
REMARK    1  A    between atoms: _1  and  _3
REMARK    2  A    between atoms: _3  and  _4
REMARK    3  A    between atoms: _7  and  _9
REMARK    4  A    between atoms: _9  and  _10
REMARK    5  A    between atoms: _13  and  _15
REMARK    6  A    between atoms: _15  and  _16
REMARK    7  A    between atoms: _15  and  _18
REMARK    8  A    between atoms: _18  and  _19
REMARK    9  A    between atoms: _25  and  _27
REMARK   10  A    between atoms: _27  and  _28
REMARK   11  A    between atoms: _27  and  _30
REMARK   12  A    between atoms: _30  and  _31
REMARK   13  A    between atoms: _31  and  _32
REMARK   14  A    between atoms: _37  and  _39
REMARK   15  A    between atoms: _39  and  _40
REMARK   16  A    between atoms: _39  and  _42
REMARK   17  A    between atoms: _42  and  _43
REMARK   18  A    between atoms: _48  and  _50
REMARK   19  A    between atoms: _50  and  _51
REMARK   20  A    between atoms: _50  and  _53
REMARK   21  A    between atoms: _53  and  _54
REMARK   22  A    between atoms: _54  and  _55
REMARK   23  A    between atoms: _57  and  _59
REMARK   24  A    between atoms: _59  and  _60
REMARK   25  A    between atoms: _59  and  _62
REMARK   26  A    between atoms: _62  and  _63
REMARK   27  A    between atoms: _66  and  _68
REMARK   28  A    between atoms: _68  and  _69
REMARK   29  A    between atoms: _68  and  _71
REMARK   30  A    between atoms: _71  and  _72
REMARK   31  A    between atoms: _72  and  _73
REMARK   32  A    between atoms: _73  and  _74
REMARK   33  A    between atoms: _83  and  _85
REMARK   34  A    between atoms: _85  and  _86
REMARK   35  A    between atoms: _85  and  _88
REMARK   36  A    between atoms: _88  and  _89
REMARK   37  A    between atoms: _89  and  _90
REMARK   38  A    between atoms: _90  and  _91
REMARK   39  A    between atoms: _91  and  _92
REMARK   40  A    between atoms: _97  and  _98
REMARK   41  A    between atoms: _103  and  _105
REMARK   42  A    between atoms: _105  and  _106
REMARK   43  A    between atoms: _105  and  _108
REMARK   44  A    between atoms: _111  and  _113
REMARK   45  A    between atoms: _113  and  _114
REMARK   46  A    between atoms: _113  and  _116
REMARK   47  A    between atoms: _116  and  _117
REMARK   48  A    between atoms: _122  and  _124
REMARK   49  A    between atoms: _124  and  _125
REMARK   50  A    between atoms: _124  and  _127
REMARK   51  A    between atoms: _127  and  _128
REMARK   52  A    between atoms: _131  and  _133
REMARK   53  A    between atoms: _133  and  _134
REMARK   54  A    between atoms: _133  and  _136
REMARK   55  A    between atoms: _136  and  _137
REMARK   56  A    between atoms: _143  and  _145
REMARK   57  A    between atoms: _145  and  _146
REMARK   58  A    between atoms: _145  and  _148
REMARK   59  A    between atoms: _148  and  _149
REMARK   60  A    between atoms: _152  and  _154
REMARK   61  A    between atoms: _154  and  _155
REMARK   62  A    between atoms: _154  and  _157
REMARK   63  A    between atoms: _157  and  _158
REMARK   64  A    between atoms: _161  and  _163
REMARK   65  A    between atoms: _163  and  _164
REMARK   66  A    between atoms: _163  and  _166
REMARK   67  A    between atoms: _166  and  _167
REMARK   68  A    between atoms: _170  and  _172
REMARK   69  A    between atoms: _172  and  _173
REMARK   70  A    between atoms: _172  and  _175
REMARK   71  A    between atoms: _177  and  _179
REMARK   72  A    between atoms: _179  and  _180
REMARK   73  A    between atoms: _179  and  _182
REMARK   74  A    between atoms: _182  and  _183
REMARK   75  A    between atoms: _183  and  _184
REMARK   76  A    between atoms: _184  and  _185
REMARK   77  A    between atoms: _194  and  _196
REMARK   78  A    between atoms: _196  and  _197
REMARK   79  A    between atoms: _196  and  _199
REMARK   80  A    between atoms: _199  and  _200
REMARK   81  A    between atoms: _200  and  _201
REMARK   82  A    between atoms: _201  and  _202
REMARK   83  A    between atoms: _202  and  _203
REMARK   84  A    between atoms: _207  and  _209
REMARK   85  A    between atoms: _209  and  _210
REMARK   86  A    between atoms: _209  and  _212
REMARK   87  A    between atoms: _212  and  _213
REMARK   88  A    between atoms: _216  and  _218
REMARK   89  A    between atoms: _218  and  _219
REMARK   90  A    between atoms: _218  and  _221
REMARK   91  A    between atoms: _224  and  _226
REMARK   92  A    between atoms: _226  and  _227
REMARK   93  A    between atoms: _230  and  _232
REMARK   94  A    between atoms: _232  and  _233
REMARK   95  A    between atoms: _232  and  _235
REMARK   96  A    between atoms: _238  and  _240
REMARK   97  A    between atoms: _240  and  _241
REMARK   98  A    between atoms: _240  and  _243
REMARK   99  A    between atoms: _243  and  _244
REMARK  100  A    between atoms: _249  and  _251
REMARK  101  A    between atoms: _251  and  _252
REMARK  102  A    between atoms: _251  and  _254
REMARK  103  A    between atoms: _254  and  _255
REMARK  104  A    between atoms: _261  and  _263
REMARK  105  A    between atoms: _263  and  _264
REMARK  106  A    between atoms: _263  and  _266
REMARK  107  A    between atoms: _266  and  _267
REMARK  108  A    between atoms: _270  and  _272
REMARK  109  A    between atoms: _272  and  _273
REMARK  110  A    between atoms: _276  and  _278
REMARK  111  A    between atoms: _278  and  _279
REMARK  112  A    between atoms: _278  and  _281
REMARK  113  A    between atoms: _281  and  _282
REMARK  114  A    between atoms: _284  and  _286
REMARK  115  A    between atoms: _286  and  _287
REMARK  116  A    between atoms: _286  and  _289
REMARK                            x       y       z     vdW  Elec       q    Type
REMARK                         _______ _______ _______ _____ _____    ______ ____
ROOT
ATOM      1  O   HOH     1     -12.742  46.525  26.711  0.00  0.00    +0.000 OA
ENDROOT
TORSDOF 0
REMARK  Name = ../refined-set-2016/4rsk/4rsk_pocket.pdb
REMARK  116 active torsions:
REMARK  status: ('A' for Active; 'I' for Inactive)
REMARK    1  A    between atoms: _1  and  _3
REMARK    2  A    between atoms: _3  and  _4
REMARK    3  A    between atoms: _7  and  _9
REMARK    4  A    between atoms: _9  and  _10
REMARK    5  A    between atoms: _13  and  _15
REMARK    6  A    between atoms: _15  and  _16
REMARK    7  A    between atoms: _15  and  _18
REMARK    8  A    between atoms: _18  and  _19
REMARK    9  A    between atoms: _25  and  _27
REMARK   10  A    between atoms: _27  and  _28
REMARK   11  A    between atoms: _27  and  _30
REMARK   12  A    between atoms: _30  and  _31
REMARK   13  A    between atoms: _31  and  _32
REMARK   14  A    between atoms: _37  and  _39
REMARK   15  A    between atoms: _39  and  _40
REMARK   16  A    between atoms: _39  and  _42
REMARK   17  A    between atoms: _42  and  _43
REMARK   18  A    between atoms: _48  and  _50
REMARK   19  A    between atoms: _50  and  _51
REMARK   20  A    between atoms: _50  and  _53
REMARK   21  A    between atoms: _53  and  _54
REMARK   22  A    between atoms: _54  and  _55
REMARK   23  A    between atoms: _57  and  _59
REMARK   24  A    between atoms: _59  and  _60
REMARK   25  A    between atoms: _59  and  _62
REMARK   26  A    between atoms: _62  and  _63
REMARK   27  A    between atoms: _66  and  _68
REMARK   28  A    between atoms: _68  and  _69
REMARK   29  A    between atoms: _68  and  _71
REMARK   30  A    between atoms: _71  and  _72
REMARK   31  A    between atoms: _72  and  _73
REMARK   32  A    between atoms: _73  and  _74
REMARK   33  A    between atoms: _83  and  _85
REMARK   34  A    between atoms: _85  and  _86
REMARK   35  A    between atoms: _85  and  _88
REMARK   36  A    between atoms: _88  and  _89
REMARK   37  A    between atoms: _89  and  _90
REMARK   38  A    between atoms: _90  and  _91
REMARK   39  A    between atoms: _91  and  _92
REMARK   40  A    between atoms: _97  and  _98
REMARK   41  A    between atoms: _103  and  _105
REMARK   42  A    between atoms: _105  and  _106
REMARK   43  A    between atoms: _105  and  _108
REMARK   44  A    between atoms: _111  and  _113
REMARK   45  A    between atoms: _113  and  _114
REMARK   46  A    between atoms: _113  and  _116
REMARK   47  A    between atoms: _116  and  _117
REMARK   48  A    between atoms: _122  and  _124
REMARK   49  A    between atoms: _124  and  _125
REMARK   50  A    between atoms: _124  and  _127
REMARK   51  A    between atoms: _127  and  _128
REMARK   52  A    between atoms: _131  and  _133
REMARK   53  A    between atoms: _133  and  _134
REMARK   54  A    between atoms: _133  and  _136
REMARK   55  A    between atoms: _136  and  _137
REMARK   56  A    between atoms: _143  and  _145
REMARK   57  A    between atoms: _145  and  _146
REMARK   58  A    between atoms: _145  and  _148
REMARK   59  A    between atoms: _148  and  _149
REMARK   60  A    between atoms: _152  and  _154
REMARK   61  A    between atoms: _154  and  _155
REMARK   62  A    between atoms: _154  and  _157
REMARK   63  A    between atoms: _157  and  _158
REMARK   64  A    between atoms: _161  and  _163
REMARK   65  A    between atoms: _163  and  _164
REMARK   66  A    between atoms: _163  and  _166
REMARK   67  A    between atoms: _166  and  _167
REMARK   68  A    between atoms: _170  and  _172
REMARK   69  A    between atoms: _172  and  _173
REMARK   70  A    between atoms: _172  and  _175
REMARK   71  A    between atoms: _177  and  _179
REMARK   72  A    between atoms: _179  and  _180
REMARK   73  A    between atoms: _179  and  _182
REMARK   74  A    between atoms: _182  and  _183
REMARK   75  A    between atoms: _183  and  _184
REMARK   76  A    between atoms: _184  and  _185
REMARK   77  A    between atoms: _194  and  _196
REMARK   78  A    between atoms: _196  and  _197
REMARK   79  A    between atoms: _196  and  _199
REMARK   80  A    between atoms: _199  and  _200
REMARK   81  A    between atoms: _200  and  _201
REMARK   82  A    between atoms: _201  and  _202
REMARK   83  A    between atoms: _202  and  _203
REMARK   84  A    between atoms: _207  and  _209
REMARK   85  A    between atoms: _209  and  _210
REMARK   86  A    between atoms: _209  and  _212
REMARK   87  A    between atoms: _212  and  _213
REMARK   88  A    between atoms: _216  and  _218
REMARK   89  A    between atoms: _218  and  _219
REMARK   90  A    between atoms: _218  and  _221
REMARK   91  A    between atoms: _224  and  _226
REMARK   92  A    between atoms: _226  and  _227
REMARK   93  A    between atoms: _230  and  _232
REMARK   94  A    between atoms: _232  and  _233
REMARK   95  A    between atoms: _232  and  _235
REMARK   96  A    between atoms: _238  and  _240
REMARK   97  A    between atoms: _240  and  _241
REMARK   98  A    between atoms: _240  and  _243
REMARK   99  A    between atoms: _243  and  _244
REMARK  100  A    between atoms: _249  and  _251
REMARK  101  A    between atoms: _251  and  _252
REMARK  102  A    between atoms: _251  and  _254
REMARK  103  A    between atoms: _254  and  _255
REMARK  104  A    between atoms: _261  and  _263
REMARK  105  A    between atoms: _263  and  _264
REMARK  106  A    between atoms: _263  and  _266
REMARK  107  A    between atoms: _266  and  _267
REMARK  108  A    between atoms: _270  and  _272
REMARK  109  A    between atoms: _272  and  _273
REMARK  110  A    between atoms: _276  and  _278
REMARK  111  A    between atoms: _278  and  _279
REMARK  112  A    between atoms: _278  and  _281
REMARK  113  A    between atoms: _281  and  _282
REMARK  114  A    between atoms: _284  and  _286
REMARK  115  A    between atoms: _286  and  _287
REMARK  116  A    between atoms: _286  and  _289
REMARK                            x       y       z     vdW  Elec       q    Type
REMARK                         _______ _______ _______ _____ _____    ______ ____
ROOT
ATOM      1  O   HOH     1     -14.432  52.977  21.673  0.00  0.00    +0.000 OA
ENDROOT
TORSDOF 0
REMARK  Name = ../refined-set-2016/4rsk/4rsk_pocket.pdb
REMARK  116 active torsions:
REMARK  status: ('A' for Active; 'I' for Inactive)
REMARK    1  A    between atoms: _1  and  _3
REMARK    2  A    between atoms: _3  and  _4
REMARK    3  A    between atoms: _7  and  _9
REMARK    4  A    between atoms: _9  and  _10
REMARK    5  A    between atoms: _13  and  _15
REMARK    6  A    between atoms: _15  and  _16
REMARK    7  A    between atoms: _15  and  _18
REMARK    8  A    between atoms: _18  and  _19
REMARK    9  A    between atoms: _25  and  _27
REMARK   10  A    between atoms: _27  and  _28
REMARK   11  A    between atoms: _27  and  _30
REMARK   12  A    between atoms: _30  and  _31
REMARK   13  A    between atoms: _31  and  _32
REMARK   14  A    between atoms: _37  and  _39
REMARK   15  A    between atoms: _39  and  _40
REMARK   16  A    between atoms: _39  and  _42
REMARK   17  A    between atoms: _42  and  _43
REMARK   18  A    between atoms: _48  and  _50
REMARK   19  A    between atoms: _50  and  _51
REMARK   20  A    between atoms: _50  and  _53
REMARK   21  A    between atoms: _53  and  _54
REMARK   22  A    between atoms: _54  and  _55
REMARK   23  A    between atoms: _57  and  _59
REMARK   24  A    between atoms: _59  and  _60
REMARK   25  A    between atoms: _59  and  _62
REMARK   26  A    between atoms: _62  and  _63
REMARK   27  A    between atoms: _66  and  _68
REMARK   28  A    between atoms: _68  and  _69
REMARK   29  A    between atoms: _68  and  _71
REMARK   30  A    between atoms: _71  and  _72
REMARK   31  A    between atoms: _72  and  _73
REMARK   32  A    between atoms: _73  and  _74
REMARK   33  A    between atoms: _83  and  _85
REMARK   34  A    between atoms: _85  and  _86
REMARK   35  A    between atoms: _85  and  _88
REMARK   36  A    between atoms: _88  and  _89
REMARK   37  A    between atoms: _89  and  _90
REMARK   38  A    between atoms: _90  and  _91
REMARK   39  A    between atoms: _91  and  _92
REMARK   40  A    between atoms: _97  and  _98
REMARK   41  A    between atoms: _103  and  _105
REMARK   42  A    between atoms: _105  and  _106
REMARK   43  A    between atoms: _105  and  _108
REMARK   44  A    between atoms: _111  and  _113
REMARK   45  A    between atoms: _113  and  _114
REMARK   46  A    between atoms: _113  and  _116
REMARK   47  A    between atoms: _116  and  _117
REMARK   48  A    between atoms: _122  and  _124
REMARK   49  A    between atoms: _124  and  _125
REMARK   50  A    between atoms: _124  and  _127
REMARK   51  A    between atoms: _127  and  _128
REMARK   52  A    between atoms: _131  and  _133
REMARK   53  A    between atoms: _133  and  _134
REMARK   54  A    between atoms: _133  and  _136
REMARK   55  A    between atoms: _136  and  _137
REMARK   56  A    between atoms: _143  and  _145
REMARK   57  A    between atoms: _145  and  _146
REMARK   58  A    between atoms: _145  and  _148
REMARK   59  A    between atoms: _148  and  _149
REMARK   60  A    between atoms: _152  and  _154
REMARK   61  A    between atoms: _154  and  _155
REMARK   62  A    between atoms: _154  and  _157
REMARK   63  A    between atoms: _157  and  _158
REMARK   64  A    between atoms: _161  and  _163
REMARK   65  A    between atoms: _163  and  _164
REMARK   66  A    between atoms: _163  and  _166
REMARK   67  A    between atoms: _166  and  _167
REMARK   68  A    between atoms: _170  and  _172
REMARK   69  A    between atoms: _172  and  _173
REMARK   70  A    between atoms: _172  and  _175
REMARK   71  A    between atoms: _177  and  _179
REMARK   72  A    between atoms: _179  and  _180
REMARK   73  A    between atoms: _179  and  _182
REMARK   74  A    between atoms: _182  and  _183
REMARK   75  A    between atoms: _183  and  _184
REMARK   76  A    between atoms: _184  and  _185
REMARK   77  A    between atoms: _194  and  _196
REMARK   78  A    between atoms: _196  and  _197
REMARK   79  A    between atoms: _196  and  _199
REMARK   80  A    between atoms: _199  and  _200
REMARK   81  A    between atoms: _200  and  _201
REMARK   82  A    between atoms: _201  and  _202
REMARK   83  A    between atoms: _202  and  _203
REMARK   84  A    between atoms: _207  and  _209
REMARK   85  A    between atoms: _209  and  _210
REMARK   86  A    between atoms: _209  and  _212
REMARK   87  A    between atoms: _212  and  _213
REMARK   88  A    between atoms: _216  and  _218
REMARK   89  A    between atoms: _218  and  _219
REMARK   90  A    between atoms: _218  and  _221
REMARK   91  A    between atoms: _224  and  _226
REMARK   92  A    between atoms: _226  and  _227
REMARK   93  A    between atoms: _230  and  _232
REMARK   94  A    between atoms: _232  and  _233
REMARK   95  A    between atoms: _232  and  _235
REMARK   96  A    between atoms: _238  and  _240
REMARK   97  A    between atoms: _240  and  _241
REMARK   98  A    between atoms: _240  and  _243
REMARK   99  A    between atoms: _243  and  _244
REMARK  100  A    between atoms: _249  and  _251
REMARK  101  A    between atoms: _251  and  _252
REMARK  102  A    between atoms: _251  and  _254
REMARK  103  A    between atoms: _254  and  _255
REMARK  104  A    between atoms: _261  and  _263
REMARK  105  A    between atoms: _263  and  _264
REMARK  106  A    between atoms: _263  and  _266
REMARK  107  A    between atoms: _266  and  _267
REMARK  108  A    between atoms: _270  and  _272
REMARK  109  A    between atoms: _272  and  _273
REMARK  110  A    between atoms: _276  and  _278
REMARK  111  A    between atoms: _278  and  _279
REMARK  112  A    between atoms: _278  and  _281
REMARK  113  A    between atoms: _281  and  _282
REMARK  114  A    between atoms: _284  and  _286
REMARK  115  A    between atoms: _286  and  _287
REMARK  116  A    between atoms: _286  and  _289
REMARK                            x       y       z     vdW  Elec       q    Type
REMARK                         _______ _______ _______ _____ _____    ______ ____
ROOT
ATOM      1  O   HOH     1     -20.619  41.851  21.031  0.00  0.00    +0.000 OA
ENDROOT
TORSDOF 0
REMARK  Name = ../refined-set-2016/4rsk/4rsk_pocket.pdb
REMARK  116 active torsions:
REMARK  status: ('A' for Active; 'I' for Inactive)
REMARK    1  A    between atoms: _1  and  _3
REMARK    2  A    between atoms: _3  and  _4
REMARK    3  A    between atoms: _7  and  _9
REMARK    4  A    between atoms: _9  and  _10
REMARK    5  A    between atoms: _13  and  _15
REMARK    6  A    between atoms: _15  and  _16
REMARK    7  A    between atoms: _15  and  _18
REMARK    8  A    between atoms: _18  and  _19
REMARK    9  A    between atoms: _25  and  _27
REMARK   10  A    between atoms: _27  and  _28
REMARK   11  A    between atoms: _27  and  _30
REMARK   12  A    between atoms: _30  and  _31
REMARK   13  A    between atoms: _31  and  _32
REMARK   14  A    between atoms: _37  and  _39
REMARK   15  A    between atoms: _39  and  _40
REMARK   16  A    between atoms: _39  and  _42
REMARK   17  A    between atoms: _42  and  _43
REMARK   18  A    between atoms: _48  and  _50
REMARK   19  A    between atoms: _50  and  _51
REMARK   20  A    between atoms: _50  and  _53
REMARK   21  A    between atoms: _53  and  _54
REMARK   22  A    between atoms: _54  and  _55
REMARK   23  A    between atoms: _57  and  _59
REMARK   24  A    between atoms: _59  and  _60
REMARK   25  A    between atoms: _59  and  _62
REMARK   26  A    between atoms: _62  and  _63
REMARK   27  A    between atoms: _66  and  _68
REMARK   28  A    between atoms: _68  and  _69
REMARK   29  A    between atoms: _68  and  _71
REMARK   30  A    between atoms: _71  and  _72
REMARK   31  A    between atoms: _72  and  _73
REMARK   32  A    between atoms: _73  and  _74
REMARK   33  A    between atoms: _83  and  _85
REMARK   34  A    between atoms: _85  and  _86
REMARK   35  A    between atoms: _85  and  _88
REMARK   36  A    between atoms: _88  and  _89
REMARK   37  A    between atoms: _89  and  _90
REMARK   38  A    between atoms: _90  and  _91
REMARK   39  A    between atoms: _91  and  _92
REMARK   40  A    between atoms: _97  and  _98
REMARK   41  A    between atoms: _103  and  _105
REMARK   42  A    between atoms: _105  and  _106
REMARK   43  A    between atoms: _105  and  _108
REMARK   44  A    between atoms: _111  and  _113
REMARK   45  A    between atoms: _113  and  _114
REMARK   46  A    between atoms: _113  and  _116
REMARK   47  A    between atoms: _116  and  _117
REMARK   48  A    between atoms: _122  and  _124
REMARK   49  A    between atoms: _124  and  _125
REMARK   50  A    between atoms: _124  and  _127
REMARK   51  A    between atoms: _127  and  _128
REMARK   52  A    between atoms: _131  and  _133
REMARK   53  A    between atoms: _133  and  _134
REMARK   54  A    between atoms: _133  and  _136
REMARK   55  A    between atoms: _136  and  _137
REMARK   56  A    between atoms: _143  and  _145
REMARK   57  A    between atoms: _145  and  _146
REMARK   58  A    between atoms: _145  and  _148
REMARK   59  A    between atoms: _148  and  _149
REMARK   60  A    between atoms: _152  and  _154
REMARK   61  A    between atoms: _154  and  _155
REMARK   62  A    between atoms: _154  and  _157
REMARK   63  A    between atoms: _157  and  _158
REMARK   64  A    between atoms: _161  and  _163
REMARK   65  A    between atoms: _163  and  _164
REMARK   66  A    between atoms: _163  and  _166
REMARK   67  A    between atoms: _166  and  _167
REMARK   68  A    between atoms: _170  and  _172
REMARK   69  A    between atoms: _172  and  _173
REMARK   70  A    between atoms: _172  and  _175
REMARK   71  A    between atoms: _177  and  _179
REMARK   72  A    between atoms: _179  and  _180
REMARK   73  A    between atoms: _179  and  _182
REMARK   74  A    between atoms: _182  and  _183
REMARK   75  A    between atoms: _183  and  _184
REMARK   76  A    between atoms: _184  and  _185
REMARK   77  A    between atoms: _194  and  _196
REMARK   78  A    between atoms: _196  and  _197
REMARK   79  A    between atoms: _196  and  _199
REMARK   80  A    between atoms: _199  and  _200
REMARK   81  A    between atoms: _200  and  _201
REMARK   82  A    between atoms: _201  and  _202
REMARK   83  A    between atoms: _202  and  _203
REMARK   84  A    between atoms: _207  and  _209
REMARK   85  A    between atoms: _209  and  _210
REMARK   86  A    between atoms: _209  and  _212
REMARK   87  A    between atoms: _212  and  _213
REMARK   88  A    between atoms: _216  and  _218
REMARK   89  A    between atoms: _218  and  _219
REMARK   90  A    between atoms: _218  and  _221
REMARK   91  A    between atoms: _224  and  _226
REMARK   92  A    between atoms: _226  and  _227
REMARK   93  A    between atoms: _230  and  _232
REMARK   94  A    between atoms: _232  and  _233
REMARK   95  A    between atoms: _232  and  _235
REMARK   96  A    between atoms: _238  and  _240
REMARK   97  A    between atoms: _240  and  _241
REMARK   98  A    between atoms: _240  and  _243
REMARK   99  A    between atoms: _243  and  _244
REMARK  100  A    between atoms: _249  and  _251
REMARK  101  A    between atoms: _251  and  _252
REMARK  102  A    between atoms: _251  and  _254
REMARK  103  A    between atoms: _254  and  _255
REMARK  104  A    between atoms: _261  and  _263
REMARK  105  A    between atoms: _263  and  _264
REMARK  106  A    between atoms: _263  and  _266
REMARK  107  A    between atoms: _266  and  _267
REMARK  108  A    between atoms: _270  and  _272
REMARK  109  A    between atoms: _272  and  _273
REMARK  110  A    between atoms: _276  and  _278
REMARK  111  A    between atoms: _278  and  _279
REMARK  112  A    between atoms: _278  and  _281
REMARK  113  A    between atoms: _281  and  _282
REMARK  114  A    between atoms: _284  and  _286
REMARK  115  A    between atoms: _286  and  _287
REMARK  116  A    between atoms: _286  and  _289
REMARK                            x       y       z     vdW  Elec       q    Type
REMARK                         _______ _______ _______ _____ _____    ______ ____
ROOT
ATOM      1  O   HOH     1     -20.773  35.969  22.275  0.00  0.00    +0.000 OA
ENDROOT
TORSDOF 0
REMARK  Name = ../refined-set-2016/4rsk/4rsk_pocket.pdb
REMARK  116 active torsions:
REMARK  status: ('A' for Active; 'I' for Inactive)
REMARK    1  A    between atoms: _1  and  _3
REMARK    2  A    between atoms: _3  and  _4
REMARK    3  A    between atoms: _7  and  _9
REMARK    4  A    between atoms: _9  and  _10
REMARK    5  A    between atoms: _13  and  _15
REMARK    6  A    between atoms: _15  and  _16
REMARK    7  A    between atoms: _15  and  _18
REMARK    8  A    between atoms: _18  and  _19
REMARK    9  A    between atoms: _25  and  _27
REMARK   10  A    between atoms: _27  and  _28
REMARK   11  A    between atoms: _27  and  _30
REMARK   12  A    between atoms: _30  and  _31
REMARK   13  A    between atoms: _31  and  _32
REMARK   14  A    between atoms: _37  and  _39
REMARK   15  A    between atoms: _39  and  _40
REMARK   16  A    between atoms: _39  and  _42
REMARK   17  A    between atoms: _42  and  _43
REMARK   18  A    between atoms: _48  and  _50
REMARK   19  A    between atoms: _50  and  _51
REMARK   20  A    between atoms: _50  and  _53
REMARK   21  A    between atoms: _53  and  _54
REMARK   22  A    between atoms: _54  and  _55
REMARK   23  A    between atoms: _57  and  _59
REMARK   24  A    between atoms: _59  and  _60
REMARK   25  A    between atoms: _59  and  _62
REMARK   26  A    between atoms: _62  and  _63
REMARK   27  A    between atoms: _66  and  _68
REMARK   28  A    between atoms: _68  and  _69
REMARK   29  A    between atoms: _68  and  _71
REMARK   30  A    between atoms: _71  and  _72
REMARK   31  A    between atoms: _72  and  _73
REMARK   32  A    between atoms: _73  and  _74
REMARK   33  A    between atoms: _83  and  _85
REMARK   34  A    between atoms: _85  and  _86
REMARK   35  A    between atoms: _85  and  _88
REMARK   36  A    between atoms: _88  and  _89
REMARK   37  A    between atoms: _89  and  _90
REMARK   38  A    between atoms: _90  and  _91
REMARK   39  A    between atoms: _91  and  _92
REMARK   40  A    between atoms: _97  and  _98
REMARK   41  A    between atoms: _103  and  _105
REMARK   42  A    between atoms: _105  and  _106
REMARK   43  A    between atoms: _105  and  _108
REMARK   44  A    between atoms: _111  and  _113
REMARK   45  A    between atoms: _113  and  _114
REMARK   46  A    between atoms: _113  and  _116
REMARK   47  A    between atoms: _116  and  _117
REMARK   48  A    between atoms: _122  and  _124
REMARK   49  A    between atoms: _124  and  _125
REMARK   50  A    between atoms: _124  and  _127
REMARK   51  A    between atoms: _127  and  _128
REMARK   52  A    between atoms: _131  and  _133
REMARK   53  A    between atoms: _133  and  _134
REMARK   54  A    between atoms: _133  and  _136
REMARK   55  A    between atoms: _136  and  _137
REMARK   56  A    between atoms: _143  and  _145
REMARK   57  A    between atoms: _145  and  _146
REMARK   58  A    between atoms: _145  and  _148
REMARK   59  A    between atoms: _148  and  _149
REMARK   60  A    between atoms: _152  and  _154
REMARK   61  A    between atoms: _154  and  _155
REMARK   62  A    between atoms: _154  and  _157
REMARK   63  A    between atoms: _157  and  _158
REMARK   64  A    between atoms: _161  and  _163
REMARK   65  A    between atoms: _163  and  _164
REMARK   66  A    between atoms: _163  and  _166
REMARK   67  A    between atoms: _166  and  _167
REMARK   68  A    between atoms: _170  and  _172
REMARK   69  A    between atoms: _172  and  _173
REMARK   70  A    between atoms: _172  and  _175
REMARK   71  A    between atoms: _177  and  _179
REMARK   72  A    between atoms: _179  and  _180
REMARK   73  A    between atoms: _179  and  _182
REMARK   74  A    between atoms: _182  and  _183
REMARK   75  A    between atoms: _183  and  _184
REMARK   76  A    between atoms: _184  and  _185
REMARK   77  A    between atoms: _194  and  _196
REMARK   78  A    between atoms: _196  and  _197
REMARK   79  A    between atoms: _196  and  _199
REMARK   80  A    between atoms: _199  and  _200
REMARK   81  A    between atoms: _200  and  _201
REMARK   82  A    between atoms: _201  and  _202
REMARK   83  A    between atoms: _202  and  _203
REMARK   84  A    between atoms: _207  and  _209
REMARK   85  A    between atoms: _209  and  _210
REMARK   86  A    between atoms: _209  and  _212
REMARK   87  A    between atoms: _212  and  _213
REMARK   88  A    between atoms: _216  and  _218
REMARK   89  A    between atoms: _218  and  _219
REMARK   90  A    between atoms: _218  and  _221
REMARK   91  A    between atoms: _224  and  _226
REMARK   92  A    between atoms: _226  and  _227
REMARK   93  A    between atoms: _230  and  _232
REMARK   94  A    between atoms: _232  and  _233
REMARK   95  A    between atoms: _232  and  _235
REMARK   96  A    between atoms: _238  and  _240
REMARK   97  A    between atoms: _240  and  _241
REMARK   98  A    between atoms: _240  and  _243
REMARK   99  A    between atoms: _243  and  _244
REMARK  100  A    between atoms: _249  and  _251
REMARK  101  A    between atoms: _251  and  _252
REMARK  102  A    between atoms: _251  and  _254
REMARK  103  A    between atoms: _254  and  _255
REMARK  104  A    between atoms: _261  and  _263
REMARK  105  A    between atoms: _263  and  _264
REMARK  106  A    between atoms: _263  and  _266
REMARK  107  A    between atoms: _266  and  _267
REMARK  108  A    between atoms: _270  and  _272
REMARK  109  A    between atoms: _272  and  _273
REMARK  110  A    between atoms: _276  and  _278
REMARK  111  A    between atoms: _278  and  _279
REMARK  112  A    between atoms: _278  and  _281
REMARK  113  A    between atoms: _281  and  _282
REMARK  114  A    between atoms: _284  and  _286
REMARK  115  A    between atoms: _286  and  _287
REMARK  116  A    between atoms: _286  and  _289
REMARK                            x       y       z     vdW  Elec       q    Type
REMARK                         _______ _______ _______ _____ _____    ______ ____
ROOT
ATOM      1  O   HOH     1     -22.042  40.548  24.563  0.00  0.00    +0.000 OA
ENDROOT
TORSDOF 0
REMARK  Name = ../refined-set-2016/4rsk/4rsk_pocket.pdb
REMARK  116 active torsions:
REMARK  status: ('A' for Active; 'I' for Inactive)
REMARK    1  A    between atoms: _1  and  _3
REMARK    2  A    between atoms: _3  and  _4
REMARK    3  A    between atoms: _7  and  _9
REMARK    4  A    between atoms: _9  and  _10
REMARK    5  A    between atoms: _13  and  _15
REMARK    6  A    between atoms: _15  and  _16
REMARK    7  A    between atoms: _15  and  _18
REMARK    8  A    between atoms: _18  and  _19
REMARK    9  A    between atoms: _25  and  _27
REMARK   10  A    between atoms: _27  and  _28
REMARK   11  A    between atoms: _27  and  _30
REMARK   12  A    between atoms: _30  and  _31
REMARK   13  A    between atoms: _31  and  _32
REMARK   14  A    between atoms: _37  and  _39
REMARK   15  A    between atoms: _39  and  _40
REMARK   16  A    between atoms: _39  and  _42
REMARK   17  A    between atoms: _42  and  _43
REMARK   18  A    between atoms: _48  and  _50
REMARK   19  A    between atoms: _50  and  _51
REMARK   20  A    between atoms: _50  and  _53
REMARK   21  A    between atoms: _53  and  _54
REMARK   22  A    between atoms: _54  and  _55
REMARK   23  A    between atoms: _57  and  _59
REMARK   24  A    between atoms: _59  and  _60
REMARK   25  A    between atoms: _59  and  _62
REMARK   26  A    between atoms: _62  and  _63
REMARK   27  A    between atoms: _66  and  _68
REMARK   28  A    between atoms: _68  and  _69
REMARK   29  A    between atoms: _68  and  _71
REMARK   30  A    between atoms: _71  and  _72
REMARK   31  A    between atoms: _72  and  _73
REMARK   32  A    between atoms: _73  and  _74
REMARK   33  A    between atoms: _83  and  _85
REMARK   34  A    between atoms: _85  and  _86
REMARK   35  A    between atoms: _85  and  _88
REMARK   36  A    between atoms: _88  and  _89
REMARK   37  A    between atoms: _89  and  _90
REMARK   38  A    between atoms: _90  and  _91
REMARK   39  A    between atoms: _91  and  _92
REMARK   40  A    between atoms: _97  and  _98
REMARK   41  A    between atoms: _103  and  _105
REMARK   42  A    between atoms: _105  and  _106
REMARK   43  A    between atoms: _105  and  _108
REMARK   44  A    between atoms: _111  and  _113
REMARK   45  A    between atoms: _113  and  _114
REMARK   46  A    between atoms: _113  and  _116
REMARK   47  A    between atoms: _116  and  _117
REMARK   48  A    between atoms: _122  and  _124
REMARK   49  A    between atoms: _124  and  _125
REMARK   50  A    between atoms: _124  and  _127
REMARK   51  A    between atoms: _127  and  _128
REMARK   52  A    between atoms: _131  and  _133
REMARK   53  A    between atoms: _133  and  _134
REMARK   54  A    between atoms: _133  and  _136
REMARK   55  A    between atoms: _136  and  _137
REMARK   56  A    between atoms: _143  and  _145
REMARK   57  A    between atoms: _145  and  _146
REMARK   58  A    between atoms: _145  and  _148
REMARK   59  A    between atoms: _148  and  _149
REMARK   60  A    between atoms: _152  and  _154
REMARK   61  A    between atoms: _154  and  _155
REMARK   62  A    between atoms: _154  and  _157
REMARK   63  A    between atoms: _157  and  _158
REMARK   64  A    between atoms: _161  and  _163
REMARK   65  A    between atoms: _163  and  _164
REMARK   66  A    between atoms: _163  and  _166
REMARK   67  A    between atoms: _166  and  _167
REMARK   68  A    between atoms: _170  and  _172
REMARK   69  A    between atoms: _172  and  _173
REMARK   70  A    between atoms: _172  and  _175
REMARK   71  A    between atoms: _177  and  _179
REMARK   72  A    between atoms: _179  and  _180
REMARK   73  A    between atoms: _179  and  _182
REMARK   74  A    between atoms: _182  and  _183
REMARK   75  A    between atoms: _183  and  _184
REMARK   76  A    between atoms: _184  and  _185
REMARK   77  A    between atoms: _194  and  _196
REMARK   78  A    between atoms: _196  and  _197
REMARK   79  A    between atoms: _196  and  _199
REMARK   80  A    between atoms: _199  and  _200
REMARK   81  A    between atoms: _200  and  _201
REMARK   82  A    between atoms: _201  and  _202
REMARK   83  A    between atoms: _202  and  _203
REMARK   84  A    between atoms: _207  and  _209
REMARK   85  A    between atoms: _209  and  _210
REMARK   86  A    between atoms: _209  and  _212
REMARK   87  A    between atoms: _212  and  _213
REMARK   88  A    between atoms: _216  and  _218
REMARK   89  A    between atoms: _218  and  _219
REMARK   90  A    between atoms: _218  and  _221
REMARK   91  A    between atoms: _224  and  _226
REMARK   92  A    between atoms: _226  and  _227
REMARK   93  A    between atoms: _230  and  _232
REMARK   94  A    between atoms: _232  and  _233
REMARK   95  A    between atoms: _232  and  _235
REMARK   96  A    between atoms: _238  and  _240
REMARK   97  A    between atoms: _240  and  _241
REMARK   98  A    between atoms: _240  and  _243
REMARK   99  A    between atoms: _243  and  _244
REMARK  100  A    between atoms: _249  and  _251
REMARK  101  A    between atoms: _251  and  _252
REMARK  102  A    between atoms: _251  and  _254
REMARK  103  A    between atoms: _254  and  _255
REMARK  104  A    between atoms: _261  and  _263
REMARK  105  A    between atoms: _263  and  _264
REMARK  106  A    between atoms: _263  and  _266
REMARK  107  A    between atoms: _266  and  _267
REMARK  108  A    between atoms: _270  and  _272
REMARK  109  A    between atoms: _272  and  _273
REMARK  110  A    between atoms: _276  and  _278
REMARK  111  A    between atoms: _278  and  _279
REMARK  112  A    between atoms: _278  and  _281
REMARK  113  A    between atoms: _281  and  _282
REMARK  114  A    between atoms: _284  and  _286
REMARK  115  A    between atoms: _286  and  _287
REMARK  116  A    between atoms: _286  and  _289
REMARK                            x       y       z     vdW  Elec       q    Type
REMARK                         _______ _______ _______ _____ _____    ______ ____
ROOT
ATOM      1  O   HOH     1     -21.148  45.203  30.647  0.00  0.00    +0.000 OA
ENDROOT
TORSDOF 0
REMARK  Name = ../refined-set-2016/4rsk/4rsk_pocket.pdb
REMARK  116 active torsions:
REMARK  status: ('A' for Active; 'I' for Inactive)
REMARK    1  A    between atoms: _1  and  _3
REMARK    2  A    between atoms: _3  and  _4
REMARK    3  A    between atoms: _7  and  _9
REMARK    4  A    between atoms: _9  and  _10
REMARK    5  A    between atoms: _13  and  _15
REMARK    6  A    between atoms: _15  and  _16
REMARK    7  A    between atoms: _15  and  _18
REMARK    8  A    between atoms: _18  and  _19
REMARK    9  A    between atoms: _25  and  _27
REMARK   10  A    between atoms: _27  and  _28
REMARK   11  A    between atoms: _27  and  _30
REMARK   12  A    between atoms: _30  and  _31
REMARK   13  A    between atoms: _31  and  _32
REMARK   14  A    between atoms: _37  and  _39
REMARK   15  A    between atoms: _39  and  _40
REMARK   16  A    between atoms: _39  and  _42
REMARK   17  A    between atoms: _42  and  _43
REMARK   18  A    between atoms: _48  and  _50
REMARK   19  A    between atoms: _50  and  _51
REMARK   20  A    between atoms: _50  and  _53
REMARK   21  A    between atoms: _53  and  _54
REMARK   22  A    between atoms: _54  and  _55
REMARK   23  A    between atoms: _57  and  _59
REMARK   24  A    between atoms: _59  and  _60
REMARK   25  A    between atoms: _59  and  _62
REMARK   26  A    between atoms: _62  and  _63
REMARK   27  A    between atoms: _66  and  _68
REMARK   28  A    between atoms: _68  and  _69
REMARK   29  A    between atoms: _68  and  _71
REMARK   30  A    between atoms: _71  and  _72
REMARK   31  A    between atoms: _72  and  _73
REMARK   32  A    between atoms: _73  and  _74
REMARK   33  A    between atoms: _83  and  _85
REMARK   34  A    between atoms: _85  and  _86
REMARK   35  A    between atoms: _85  and  _88
REMARK   36  A    between atoms: _88  and  _89
REMARK   37  A    between atoms: _89  and  _90
REMARK   38  A    between atoms: _90  and  _91
REMARK   39  A    between atoms: _91  and  _92
REMARK   40  A    between atoms: _97  and  _98
REMARK   41  A    between atoms: _103  and  _105
REMARK   42  A    between atoms: _105  and  _106
REMARK   43  A    between atoms: _105  and  _108
REMARK   44  A    between atoms: _111  and  _113
REMARK   45  A    between atoms: _113  and  _114
REMARK   46  A    between atoms: _113  and  _116
REMARK   47  A    between atoms: _116  and  _117
REMARK   48  A    between atoms: _122  and  _124
REMARK   49  A    between atoms: _124  and  _125
REMARK   50  A    between atoms: _124  and  _127
REMARK   51  A    between atoms: _127  and  _128
REMARK   52  A    between atoms: _131  and  _133
REMARK   53  A    between atoms: _133  and  _134
REMARK   54  A    between atoms: _133  and  _136
REMARK   55  A    between atoms: _136  and  _137
REMARK   56  A    between atoms: _143  and  _145
REMARK   57  A    between atoms: _145  and  _146
REMARK   58  A    between atoms: _145  and  _148
REMARK   59  A    between atoms: _148  and  _149
REMARK   60  A    between atoms: _152  and  _154
REMARK   61  A    between atoms: _154  and  _155
REMARK   62  A    between atoms: _154  and  _157
REMARK   63  A    between atoms: _157  and  _158
REMARK   64  A    between atoms: _161  and  _163
REMARK   65  A    between atoms: _163  and  _164
REMARK   66  A    between atoms: _163  and  _166
REMARK   67  A    between atoms: _166  and  _167
REMARK   68  A    between atoms: _170  and  _172
REMARK   69  A    between atoms: _172  and  _173
REMARK   70  A    between atoms: _172  and  _175
REMARK   71  A    between atoms: _177  and  _179
REMARK   72  A    between atoms: _179  and  _180
REMARK   73  A    between atoms: _179  and  _182
REMARK   74  A    between atoms: _182  and  _183
REMARK   75  A    between atoms: _183  and  _184
REMARK   76  A    between atoms: _184  and  _185
REMARK   77  A    between atoms: _194  and  _196
REMARK   78  A    between atoms: _196  and  _197
REMARK   79  A    between atoms: _196  and  _199
REMARK   80  A    between atoms: _199  and  _200
REMARK   81  A    between atoms: _200  and  _201
REMARK   82  A    between atoms: _201  and  _202
REMARK   83  A    between atoms: _202  and  _203
REMARK   84  A    between atoms: _207  and  _209
REMARK   85  A    between atoms: _209  and  _210
REMARK   86  A    between atoms: _209  and  _212
REMARK   87  A    between atoms: _212  and  _213
REMARK   88  A    between atoms: _216  and  _218
REMARK   89  A    between atoms: _218  and  _219
REMARK   90  A    between atoms: _218  and  _221
REMARK   91  A    between atoms: _224  and  _226
REMARK   92  A    between atoms: _226  and  _227
REMARK   93  A    between atoms: _230  and  _232
REMARK   94  A    between atoms: _232  and  _233
REMARK   95  A    between atoms: _232  and  _235
REMARK   96  A    between atoms: _238  and  _240
REMARK   97  A    between atoms: _240  and  _241
REMARK   98  A    between atoms: _240  and  _243
REMARK   99  A    between atoms: _243  and  _244
REMARK  100  A    between atoms: _249  and  _251
REMARK  101  A    between atoms: _251  and  _252
REMARK  102  A    between atoms: _251  and  _254
REMARK  103  A    between atoms: _254  and  _255
REMARK  104  A    between atoms: _261  and  _263
REMARK  105  A    between atoms: _263  and  _264
REMARK  106  A    between atoms: _263  and  _266
REMARK  107  A    between atoms: _266  and  _267
REMARK  108  A    between atoms: _270  and  _272
REMARK  109  A    between atoms: _272  and  _273
REMARK  110  A    between atoms: _276  and  _278
REMARK  111  A    between atoms: _278  and  _279
REMARK  112  A    between atoms: _278  and  _281
REMARK  113  A    between atoms: _281  and  _282
REMARK  114  A    between atoms: _284  and  _286
REMARK  115  A    between atoms: _286  and  _287
REMARK  116  A    between atoms: _286  and  _289
REMARK                            x       y       z     vdW  Elec       q    Type
REMARK                         _______ _______ _______ _____ _____    ______ ____
ROOT
ATOM      1  O   HOH     1     -18.570  49.781  20.770  0.00  0.00    +0.000 OA
ENDROOT
TORSDOF 0
REMARK  Name = ../refined-set-2016/4rsk/4rsk_pocket.pdb
REMARK  116 active torsions:
REMARK  status: ('A' for Active; 'I' for Inactive)
REMARK    1  A    between atoms: _1  and  _3
REMARK    2  A    between atoms: _3  and  _4
REMARK    3  A    between atoms: _7  and  _9
REMARK    4  A    between atoms: _9  and  _10
REMARK    5  A    between atoms: _13  and  _15
REMARK    6  A    between atoms: _15  and  _16
REMARK    7  A    between atoms: _15  and  _18
REMARK    8  A    between atoms: _18  and  _19
REMARK    9  A    between atoms: _25  and  _27
REMARK   10  A    between atoms: _27  and  _28
REMARK   11  A    between atoms: _27  and  _30
REMARK   12  A    between atoms: _30  and  _31
REMARK   13  A    between atoms: _31  and  _32
REMARK   14  A    between atoms: _37  and  _39
REMARK   15  A    between atoms: _39  and  _40
REMARK   16  A    between atoms: _39  and  _42
REMARK   17  A    between atoms: _42  and  _43
REMARK   18  A    between atoms: _48  and  _50
REMARK   19  A    between atoms: _50  and  _51
REMARK   20  A    between atoms: _50  and  _53
REMARK   21  A    between atoms: _53  and  _54
REMARK   22  A    between atoms: _54  and  _55
REMARK   23  A    between atoms: _57  and  _59
REMARK   24  A    between atoms: _59  and  _60
REMARK   25  A    between atoms: _59  and  _62
REMARK   26  A    between atoms: _62  and  _63
REMARK   27  A    between atoms: _66  and  _68
REMARK   28  A    between atoms: _68  and  _69
REMARK   29  A    between atoms: _68  and  _71
REMARK   30  A    between atoms: _71  and  _72
REMARK   31  A    between atoms: _72  and  _73
REMARK   32  A    between atoms: _73  and  _74
REMARK   33  A    between atoms: _83  and  _85
REMARK   34  A    between atoms: _85  and  _86
REMARK   35  A    between atoms: _85  and  _88
REMARK   36  A    between atoms: _88  and  _89
REMARK   37  A    between atoms: _89  and  _90
REMARK   38  A    between atoms: _90  and  _91
REMARK   39  A    between atoms: _91  and  _92
REMARK   40  A    between atoms: _97  and  _98
REMARK   41  A    between atoms: _103  and  _105
REMARK   42  A    between atoms: _105  and  _106
REMARK   43  A    between atoms: _105  and  _108
REMARK   44  A    between atoms: _111  and  _113
REMARK   45  A    between atoms: _113  and  _114
REMARK   46  A    between atoms: _113  and  _116
REMARK   47  A    between atoms: _116  and  _117
REMARK   48  A    between atoms: _122  and  _124
REMARK   49  A    between atoms: _124  and  _125
REMARK   50  A    between atoms: _124  and  _127
REMARK   51  A    between atoms: _127  and  _128
REMARK   52  A    between atoms: _131  and  _133
REMARK   53  A    between atoms: _133  and  _134
REMARK   54  A    between atoms: _133  and  _136
REMARK   55  A    between atoms: _136  and  _137
REMARK   56  A    between atoms: _143  and  _145
REMARK   57  A    between atoms: _145  and  _146
REMARK   58  A    between atoms: _145  and  _148
REMARK   59  A    between atoms: _148  and  _149
REMARK   60  A    between atoms: _152  and  _154
REMARK   61  A    between atoms: _154  and  _155
REMARK   62  A    between atoms: _154  and  _157
REMARK   63  A    between atoms: _157  and  _158
REMARK   64  A    between atoms: _161  and  _163
REMARK   65  A    between atoms: _163  and  _164
REMARK   66  A    between atoms: _163  and  _166
REMARK   67  A    between atoms: _166  and  _167
REMARK   68  A    between atoms: _170  and  _172
REMARK   69  A    between atoms: _172  and  _173
REMARK   70  A    between atoms: _172  and  _175
REMARK   71  A    between atoms: _177  and  _179
REMARK   72  A    between atoms: _179  and  _180
REMARK   73  A    between atoms: _179  and  _182
REMARK   74  A    between atoms: _182  and  _183
REMARK   75  A    between atoms: _183  and  _184
REMARK   76  A    between atoms: _184  and  _185
REMARK   77  A    between atoms: _194  and  _196
REMARK   78  A    between atoms: _196  and  _197
REMARK   79  A    between atoms: _196  and  _199
REMARK   80  A    between atoms: _199  and  _200
REMARK   81  A    between atoms: _200  and  _201
REMARK   82  A    between atoms: _201  and  _202
REMARK   83  A    between atoms: _202  and  _203
REMARK   84  A    between atoms: _207  and  _209
REMARK   85  A    between atoms: _209  and  _210
REMARK   86  A    between atoms: _209  and  _212
REMARK   87  A    between atoms: _212  and  _213
REMARK   88  A    between atoms: _216  and  _218
REMARK   89  A    between atoms: _218  and  _219
REMARK   90  A    between atoms: _218  and  _221
REMARK   91  A    between atoms: _224  and  _226
REMARK   92  A    between atoms: _226  and  _227
REMARK   93  A    between atoms: _230  and  _232
REMARK   94  A    between atoms: _232  and  _233
REMARK   95  A    between atoms: _232  and  _235
REMARK   96  A    between atoms: _238  and  _240
REMARK   97  A    between atoms: _240  and  _241
REMARK   98  A    between atoms: _240  and  _243
REMARK   99  A    between atoms: _243  and  _244
REMARK  100  A    between atoms: _249  and  _251
REMARK  101  A    between atoms: _251  and  _252
REMARK  102  A    between atoms: _251  and  _254
REMARK  103  A    between atoms: _254  and  _255
REMARK  104  A    between atoms: _261  and  _263
REMARK  105  A    between atoms: _263  and  _264
REMARK  106  A    between atoms: _263  and  _266
REMARK  107  A    between atoms: _266  and  _267
REMARK  108  A    between atoms: _270  and  _272
REMARK  109  A    between atoms: _272  and  _273
REMARK  110  A    between atoms: _276  and  _278
REMARK  111  A    between atoms: _278  and  _279
REMARK  112  A    between atoms: _278  and  _281
REMARK  113  A    between atoms: _281  and  _282
REMARK  114  A    between atoms: _284  and  _286
REMARK  115  A    between atoms: _286  and  _287
REMARK  116  A    between atoms: _286  and  _289
REMARK                            x       y       z     vdW  Elec       q    Type
REMARK                         _______ _______ _______ _____ _____    ______ ____
ROOT
ATOM      1  O   HOH     1     -17.545  30.399  22.326  0.00  0.00    +0.000 OA
ENDROOT
TORSDOF 0
REMARK  Name = ../refined-set-2016/4rsk/4rsk_pocket.pdb
REMARK  116 active torsions:
REMARK  status: ('A' for Active; 'I' for Inactive)
REMARK    1  A    between atoms: _1  and  _3
REMARK    2  A    between atoms: _3  and  _4
REMARK    3  A    between atoms: _7  and  _9
REMARK    4  A    between atoms: _9  and  _10
REMARK    5  A    between atoms: _13  and  _15
REMARK    6  A    between atoms: _15  and  _16
REMARK    7  A    between atoms: _15  and  _18
REMARK    8  A    between atoms: _18  and  _19
REMARK    9  A    between atoms: _25  and  _27
REMARK   10  A    between atoms: _27  and  _28
REMARK   11  A    between atoms: _27  and  _30
REMARK   12  A    between atoms: _30  and  _31
REMARK   13  A    between atoms: _31  and  _32
REMARK   14  A    between atoms: _37  and  _39
REMARK   15  A    between atoms: _39  and  _40
REMARK   16  A    between atoms: _39  and  _42
REMARK   17  A    between atoms: _42  and  _43
REMARK   18  A    between atoms: _48  and  _50
REMARK   19  A    between atoms: _50  and  _51
REMARK   20  A    between atoms: _50  and  _53
REMARK   21  A    between atoms: _53  and  _54
REMARK   22  A    between atoms: _54  and  _55
REMARK   23  A    between atoms: _57  and  _59
REMARK   24  A    between atoms: _59  and  _60
REMARK   25  A    between atoms: _59  and  _62
REMARK   26  A    between atoms: _62  and  _63
REMARK   27  A    between atoms: _66  and  _68
REMARK   28  A    between atoms: _68  and  _69
REMARK   29  A    between atoms: _68  and  _71
REMARK   30  A    between atoms: _71  and  _72
REMARK   31  A    between atoms: _72  and  _73
REMARK   32  A    between atoms: _73  and  _74
REMARK   33  A    between atoms: _83  and  _85
REMARK   34  A    between atoms: _85  and  _86
REMARK   35  A    between atoms: _85  and  _88
REMARK   36  A    between atoms: _88  and  _89
REMARK   37  A    between atoms: _89  and  _90
REMARK   38  A    between atoms: _90  and  _91
REMARK   39  A    between atoms: _91  and  _92
REMARK   40  A    between atoms: _97  and  _98
REMARK   41  A    between atoms: _103  and  _105
REMARK   42  A    between atoms: _105  and  _106
REMARK   43  A    between atoms: _105  and  _108
REMARK   44  A    between atoms: _111  and  _113
REMARK   45  A    between atoms: _113  and  _114
REMARK   46  A    between atoms: _113  and  _116
REMARK   47  A    between atoms: _116  and  _117
REMARK   48  A    between atoms: _122  and  _124
REMARK   49  A    between atoms: _124  and  _125
REMARK   50  A    between atoms: _124  and  _127
REMARK   51  A    between atoms: _127  and  _128
REMARK   52  A    between atoms: _131  and  _133
REMARK   53  A    between atoms: _133  and  _134
REMARK   54  A    between atoms: _133  and  _136
REMARK   55  A    between atoms: _136  and  _137
REMARK   56  A    between atoms: _143  and  _145
REMARK   57  A    between atoms: _145  and  _146
REMARK   58  A    between atoms: _145  and  _148
REMARK   59  A    between atoms: _148  and  _149
REMARK   60  A    between atoms: _152  and  _154
REMARK   61  A    between atoms: _154  and  _155
REMARK   62  A    between atoms: _154  and  _157
REMARK   63  A    between atoms: _157  and  _158
REMARK   64  A    between atoms: _161  and  _163
REMARK   65  A    between atoms: _163  and  _164
REMARK   66  A    between atoms: _163  and  _166
REMARK   67  A    between atoms: _166  and  _167
REMARK   68  A    between atoms: _170  and  _172
REMARK   69  A    between atoms: _172  and  _173
REMARK   70  A    between atoms: _172  and  _175
REMARK   71  A    between atoms: _177  and  _179
REMARK   72  A    between atoms: _179  and  _180
REMARK   73  A    between atoms: _179  and  _182
REMARK   74  A    between atoms: _182  and  _183
REMARK   75  A    between atoms: _183  and  _184
REMARK   76  A    between atoms: _184  and  _185
REMARK   77  A    between atoms: _194  and  _196
REMARK   78  A    between atoms: _196  and  _197
REMARK   79  A    between atoms: _196  and  _199
REMARK   80  A    between atoms: _199  and  _200
REMARK   81  A    between atoms: _200  and  _201
REMARK   82  A    between atoms: _201  and  _202
REMARK   83  A    between atoms: _202  and  _203
REMARK   84  A    between atoms: _207  and  _209
REMARK   85  A    between atoms: _209  and  _210
REMARK   86  A    between atoms: _209  and  _212
REMARK   87  A    between atoms: _212  and  _213
REMARK   88  A    between atoms: _216  and  _218
REMARK   89  A    between atoms: _218  and  _219
REMARK   90  A    between atoms: _218  and  _221
REMARK   91  A    between atoms: _224  and  _226
REMARK   92  A    between atoms: _226  and  _227
REMARK   93  A    between atoms: _230  and  _232
REMARK   94  A    between atoms: _232  and  _233
REMARK   95  A    between atoms: _232  and  _235
REMARK   96  A    between atoms: _238  and  _240
REMARK   97  A    between atoms: _240  and  _241
REMARK   98  A    between atoms: _240  and  _243
REMARK   99  A    between atoms: _243  and  _244
REMARK  100  A    between atoms: _249  and  _251
REMARK  101  A    between atoms: _251  and  _252
REMARK  102  A    between atoms: _251  and  _254
REMARK  103  A    between atoms: _254  and  _255
REMARK  104  A    between atoms: _261  and  _263
REMARK  105  A    between atoms: _263  and  _264
REMARK  106  A    between atoms: _263  and  _266
REMARK  107  A    between atoms: _266  and  _267
REMARK  108  A    between atoms: _270  and  _272
REMARK  109  A    between atoms: _272  and  _273
REMARK  110  A    between atoms: _276  and  _278
REMARK  111  A    between atoms: _278  and  _279
REMARK  112  A    between atoms: _278  and  _281
REMARK  113  A    between atoms: _281  and  _282
REMARK  114  A    between atoms: _284  and  _286
REMARK  115  A    between atoms: _286  and  _287
REMARK  116  A    between atoms: _286  and  _289
REMARK                            x       y       z     vdW  Elec       q    Type
REMARK                         _______ _______ _______ _____ _____    ______ ____
ROOT
ATOM      1  O   HOH     1     -17.527  46.642  18.306  0.00  0.00    +0.000 OA
ENDROOT
TORSDOF 0
REMARK  Name = ../refined-set-2016/4rsk/4rsk_pocket.pdb
REMARK  116 active torsions:
REMARK  status: ('A' for Active; 'I' for Inactive)
REMARK    1  A    between atoms: _1  and  _3
REMARK    2  A    between atoms: _3  and  _4
REMARK    3  A    between atoms: _7  and  _9
REMARK    4  A    between atoms: _9  and  _10
REMARK    5  A    between atoms: _13  and  _15
REMARK    6  A    between atoms: _15  and  _16
REMARK    7  A    between atoms: _15  and  _18
REMARK    8  A    between atoms: _18  and  _19
REMARK    9  A    between atoms: _25  and  _27
REMARK   10  A    between atoms: _27  and  _28
REMARK   11  A    between atoms: _27  and  _30
REMARK   12  A    between atoms: _30  and  _31
REMARK   13  A    between atoms: _31  and  _32
REMARK   14  A    between atoms: _37  and  _39
REMARK   15  A    between atoms: _39  and  _40
REMARK   16  A    between atoms: _39  and  _42
REMARK   17  A    between atoms: _42  and  _43
REMARK   18  A    between atoms: _48  and  _50
REMARK   19  A    between atoms: _50  and  _51
REMARK   20  A    between atoms: _50  and  _53
REMARK   21  A    between atoms: _53  and  _54
REMARK   22  A    between atoms: _54  and  _55
REMARK   23  A    between atoms: _57  and  _59
REMARK   24  A    between atoms: _59  and  _60
REMARK   25  A    between atoms: _59  and  _62
REMARK   26  A    between atoms: _62  and  _63
REMARK   27  A    between atoms: _66  and  _68
REMARK   28  A    between atoms: _68  and  _69
REMARK   29  A    between atoms: _68  and  _71
REMARK   30  A    between atoms: _71  and  _72
REMARK   31  A    between atoms: _72  and  _73
REMARK   32  A    between atoms: _73  and  _74
REMARK   33  A    between atoms: _83  and  _85
REMARK   34  A    between atoms: _85  and  _86
REMARK   35  A    between atoms: _85  and  _88
REMARK   36  A    between atoms: _88  and  _89
REMARK   37  A    between atoms: _89  and  _90
REMARK   38  A    between atoms: _90  and  _91
REMARK   39  A    between atoms: _91  and  _92
REMARK   40  A    between atoms: _97  and  _98
REMARK   41  A    between atoms: _103  and  _105
REMARK   42  A    between atoms: _105  and  _106
REMARK   43  A    between atoms: _105  and  _108
REMARK   44  A    between atoms: _111  and  _113
REMARK   45  A    between atoms: _113  and  _114
REMARK   46  A    between atoms: _113  and  _116
REMARK   47  A    between atoms: _116  and  _117
REMARK   48  A    between atoms: _122  and  _124
REMARK   49  A    between atoms: _124  and  _125
REMARK   50  A    between atoms: _124  and  _127
REMARK   51  A    between atoms: _127  and  _128
REMARK   52  A    between atoms: _131  and  _133
REMARK   53  A    between atoms: _133  and  _134
REMARK   54  A    between atoms: _133  and  _136
REMARK   55  A    between atoms: _136  and  _137
REMARK   56  A    between atoms: _143  and  _145
REMARK   57  A    between atoms: _145  and  _146
REMARK   58  A    between atoms: _145  and  _148
REMARK   59  A    between atoms: _148  and  _149
REMARK   60  A    between atoms: _152  and  _154
REMARK   61  A    between atoms: _154  and  _155
REMARK   62  A    between atoms: _154  and  _157
REMARK   63  A    between atoms: _157  and  _158
REMARK   64  A    between atoms: _161  and  _163
REMARK   65  A    between atoms: _163  and  _164
REMARK   66  A    between atoms: _163  and  _166
REMARK   67  A    between atoms: _166  and  _167
REMARK   68  A    between atoms: _170  and  _172
REMARK   69  A    between atoms: _172  and  _173
REMARK   70  A    between atoms: _172  and  _175
REMARK   71  A    between atoms: _177  and  _179
REMARK   72  A    between atoms: _179  and  _180
REMARK   73  A    between atoms: _179  and  _182
REMARK   74  A    between atoms: _182  and  _183
REMARK   75  A    between atoms: _183  and  _184
REMARK   76  A    between atoms: _184  and  _185
REMARK   77  A    between atoms: _194  and  _196
REMARK   78  A    between atoms: _196  and  _197
REMARK   79  A    between atoms: _196  and  _199
REMARK   80  A    between atoms: _199  and  _200
REMARK   81  A    between atoms: _200  and  _201
REMARK   82  A    between atoms: _201  and  _202
REMARK   83  A    between atoms: _202  and  _203
REMARK   84  A    between atoms: _207  and  _209
REMARK   85  A    between atoms: _209  and  _210
REMARK   86  A    between atoms: _209  and  _212
REMARK   87  A    between atoms: _212  and  _213
REMARK   88  A    between atoms: _216  and  _218
REMARK   89  A    between atoms: _218  and  _219
REMARK   90  A    between atoms: _218  and  _221
REMARK   91  A    between atoms: _224  and  _226
REMARK   92  A    between atoms: _226  and  _227
REMARK   93  A    between atoms: _230  and  _232
REMARK   94  A    between atoms: _232  and  _233
REMARK   95  A    between atoms: _232  and  _235
REMARK   96  A    between atoms: _238  and  _240
REMARK   97  A    between atoms: _240  and  _241
REMARK   98  A    between atoms: _240  and  _243
REMARK   99  A    between atoms: _243  and  _244
REMARK  100  A    between atoms: _249  and  _251
REMARK  101  A    between atoms: _251  and  _252
REMARK  102  A    between atoms: _251  and  _254
REMARK  103  A    between atoms: _254  and  _255
REMARK  104  A    between atoms: _261  and  _263
REMARK  105  A    between atoms: _263  and  _264
REMARK  106  A    between atoms: _263  and  _266
REMARK  107  A    between atoms: _266  and  _267
REMARK  108  A    between atoms: _270  and  _272
REMARK  109  A    between atoms: _272  and  _273
REMARK  110  A    between atoms: _276  and  _278
REMARK  111  A    between atoms: _278  and  _279
REMARK  112  A    between atoms: _278  and  _281
REMARK  113  A    between atoms: _281  and  _282
REMARK  114  A    between atoms: _284  and  _286
REMARK  115  A    between atoms: _286  and  _287
REMARK  116  A    between atoms: _286  and  _289
REMARK                            x       y       z     vdW  Elec       q    Type
REMARK                         _______ _______ _______ _____ _____    ______ ____
ROOT
ATOM      1  O   HOH     1     -20.053  44.780  18.035  0.00  0.00    +0.000 OA
ENDROOT
TORSDOF 0
