REMARK  Name = ../refined-set-2016/3r88/3r88_pocket.pdb
REMARK  111 active torsions:
REMARK  status: ('A' for Active; 'I' for Inactive)
REMARK    1  A    between atoms: _1  and  _3
REMARK    2  A    between atoms: _3  and  _4
REMARK    3  A    between atoms: _3  and  _6
REMARK    4  A    between atoms: _6  and  _7
REMARK    5  A    between atoms: _7  and  _8
REMARK    6  A    between atoms: _10  and  _12
REMARK    7  A    between atoms: _12  and  _13
REMARK    8  A    between atoms: _12  and  _15
REMARK    9  A    between atoms: _15  and  _16
REMARK   10  A    between atoms: _16  and  _17
REMARK   11  A    between atoms: _19  and  _21
REMARK   12  A    between atoms: _21  and  _22
REMARK   13  A    between atoms: _21  and  _24
REMARK   14  A    between atoms: _24  and  _25
REMARK   15  A    between atoms: _25  and  _26
REMARK   16  A    between atoms: _28  and  _30
REMARK   17  A    between atoms: _30  and  _31
REMARK   18  A    between atoms: _34  and  _36
REMARK   19  A    between atoms: _36  and  _37
REMARK   20  A    between atoms: _36  and  _39
REMARK   21  A    between atoms: _39  and  _40
REMARK   22  A    between atoms: _45  and  _47
REMARK   23  A    between atoms: _47  and  _48
REMARK   24  A    between atoms: _50  and  _52
REMARK   25  A    between atoms: _52  and  _53
REMARK   26  A    between atoms: _52  and  _55
REMARK   27  A    between atoms: _55  and  _56
REMARK   28  A    between atoms: _61  and  _63
REMARK   29  A    between atoms: _63  and  _64
REMARK   30  A    between atoms: _63  and  _66
REMARK   31  A    between atoms: _66  and  _67
REMARK   32  A    between atoms: _67  and  _68
REMARK   33  A    between atoms: _68  and  _69
REMARK   34  A    between atoms: _78  and  _80
REMARK   35  A    between atoms: _80  and  _81
REMARK   36  A    between atoms: _84  and  _86
REMARK   37  A    between atoms: _86  and  _87
REMARK   38  A    between atoms: _90  and  _92
REMARK   39  A    between atoms: _92  and  _93
REMARK   40  A    between atoms: _92  and  _95
REMARK   41  A    between atoms: _95  and  _96
REMARK   42  A    between atoms: _102  and  _104
REMARK   43  A    between atoms: _104  and  _105
REMARK   44  A    between atoms: _109  and  _110
REMARK   45  A    between atoms: _115  and  _117
REMARK   46  A    between atoms: _117  and  _118
REMARK   47  A    between atoms: _117  and  _120
REMARK   48  A    between atoms: _120  and  _121
REMARK   49  A    between atoms: _121  and  _122
REMARK   50  A    between atoms: _122  and  _123
REMARK   51  A    between atoms: _132  and  _134
REMARK   52  A    between atoms: _134  and  _135
REMARK   53  A    between atoms: _134  and  _137
REMARK   54  A    between atoms: _137  and  _138
REMARK   55  A    between atoms: _144  and  _146
REMARK   56  A    between atoms: _146  and  _147
REMARK   57  A    between atoms: _146  and  _149
REMARK   58  A    between atoms: _149  and  _150
REMARK   59  A    between atoms: _156  and  _157
REMARK   60  A    between atoms: _162  and  _164
REMARK   61  A    between atoms: _164  and  _165
REMARK   62  A    between atoms: _164  and  _167
REMARK   63  A    between atoms: _167  and  _168
REMARK   64  A    between atoms: _170  and  _172
REMARK   65  A    between atoms: _172  and  _173
REMARK   66  A    between atoms: _172  and  _175
REMARK   67  A    between atoms: _175  and  _176
REMARK   68  A    between atoms: _181  and  _182
REMARK   69  A    between atoms: _184  and  _186
REMARK   70  A    between atoms: _186  and  _187
REMARK   71  A    between atoms: _186  and  _189
REMARK   72  A    between atoms: _189  and  _190
REMARK   73  A    between atoms: _190  and  _191
REMARK   74  A    between atoms: _191  and  _192
REMARK   75  A    between atoms: _201  and  _203
REMARK   76  A    between atoms: _203  and  _204
REMARK   77  A    between atoms: _203  and  _206
REMARK   78  A    between atoms: _206  and  _207
REMARK   79  A    between atoms: _212  and  _214
REMARK   80  A    between atoms: _214  and  _215
REMARK   81  A    between atoms: _218  and  _220
REMARK   82  A    between atoms: _220  and  _221
REMARK   83  A    between atoms: _224  and  _226
REMARK   84  A    between atoms: _226  and  _227
REMARK   85  A    between atoms: _230  and  _232
REMARK   86  A    between atoms: _232  and  _233
REMARK   87  A    between atoms: _232  and  _235
REMARK   88  A    between atoms: _235  and  _236
REMARK   89  A    between atoms: _236  and  _237
REMARK   90  A    between atoms: _237  and  _238
REMARK   91  A    between atoms: _247  and  _249
REMARK   92  A    between atoms: _249  and  _250
REMARK   93  A    between atoms: _249  and  _252
REMARK   94  A    between atoms: _252  and  _253
REMARK   95  A    between atoms: _253  and  _254
REMARK   96  A    between atoms: _254  and  _255
REMARK   97  A    between atoms: _264  and  _266
REMARK   98  A    between atoms: _266  and  _267
REMARK   99  A    between atoms: _266  and  _269
REMARK  100  A    between atoms: _269  and  _270
REMARK  101  A    between atoms: _276  and  _278
REMARK  102  A    between atoms: _278  and  _279
REMARK  103  A    between atoms: _278  and  _281
REMARK  104  A    between atoms: _281  and  _282
REMARK  105  A    between atoms: _285  and  _287
REMARK  106  A    between atoms: _287  and  _288
REMARK  107  A    between atoms: _290  and  _292
REMARK  108  A    between atoms: _292  and  _293
REMARK  109  A    between atoms: _292  and  _295
REMARK  110  A    between atoms: _295  and  _296
REMARK  111  A    between atoms: _300  and  _301
REMARK                            x       y       z     vdW  Elec       q    Type
REMARK                         _______ _______ _______ _____ _____    ______ ____
ROOT
ATOM      1  CA  MET A   1     -10.735 -16.888   7.989  0.00  0.00    +0.134 C 
ENDROOT
BRANCH   1   2
ATOM      2  N   MET A   1     -11.094 -15.646   8.658  0.00  0.00    -0.239 NA
ATOM      3  H   MET A   1     -12.092 -15.383   8.783  0.00  0.00    +0.142 HD
ENDBRANCH   1   2
BRANCH   1   4
ATOM      4  C   MET A   1      -9.982 -16.641   6.681  0.00  0.00    +0.224 C 
ATOM      5  O   MET A   1      -9.071 -17.367   6.362  0.00  0.00    -0.287 OA
ENDBRANCH   1   4
BRANCH   1   6
ATOM      6  CB  MET A   1     -11.962 -17.771   7.748  0.00  0.00    +0.037 C 
BRANCH   6   7
ATOM      7  CG  MET A   1     -11.581 -19.193   7.380  0.00  0.00    +0.059 C 
BRANCH   7   8
ATOM      8  SD  MET A   1     -10.824 -20.058   8.806  0.00  0.00    -0.139 S 
ATOM      9  CE  MET A   1     -10.676 -21.709   8.132  0.00  0.00    +0.069 C 
ENDBRANCH   7   8
ENDBRANCH   6   7
ENDBRANCH   1   6
TORSDOF 5
REMARK  Name = ../refined-set-2016/3r88/3r88_pocket.pdb
REMARK  111 active torsions:
REMARK  status: ('A' for Active; 'I' for Inactive)
REMARK    1  A    between atoms: _1  and  _3
REMARK    2  A    between atoms: _3  and  _4
REMARK    3  A    between atoms: _3  and  _6
REMARK    4  A    between atoms: _6  and  _7
REMARK    5  A    between atoms: _7  and  _8
REMARK    6  A    between atoms: _10  and  _12
REMARK    7  A    between atoms: _12  and  _13
REMARK    8  A    between atoms: _12  and  _15
REMARK    9  A    between atoms: _15  and  _16
REMARK   10  A    between atoms: _16  and  _17
REMARK   11  A    between atoms: _19  and  _21
REMARK   12  A    between atoms: _21  and  _22
REMARK   13  A    between atoms: _21  and  _24
REMARK   14  A    between atoms: _24  and  _25
REMARK   15  A    between atoms: _25  and  _26
REMARK   16  A    between atoms: _28  and  _30
REMARK   17  A    between atoms: _30  and  _31
REMARK   18  A    between atoms: _34  and  _36
REMARK   19  A    between atoms: _36  and  _37
REMARK   20  A    between atoms: _36  and  _39
REMARK   21  A    between atoms: _39  and  _40
REMARK   22  A    between atoms: _45  and  _47
REMARK   23  A    between atoms: _47  and  _48
REMARK   24  A    between atoms: _50  and  _52
REMARK   25  A    between atoms: _52  and  _53
REMARK   26  A    between atoms: _52  and  _55
REMARK   27  A    between atoms: _55  and  _56
REMARK   28  A    between atoms: _61  and  _63
REMARK   29  A    between atoms: _63  and  _64
REMARK   30  A    between atoms: _63  and  _66
REMARK   31  A    between atoms: _66  and  _67
REMARK   32  A    between atoms: _67  and  _68
REMARK   33  A    between atoms: _68  and  _69
REMARK   34  A    between atoms: _78  and  _80
REMARK   35  A    between atoms: _80  and  _81
REMARK   36  A    between atoms: _84  and  _86
REMARK   37  A    between atoms: _86  and  _87
REMARK   38  A    between atoms: _90  and  _92
REMARK   39  A    between atoms: _92  and  _93
REMARK   40  A    between atoms: _92  and  _95
REMARK   41  A    between atoms: _95  and  _96
REMARK   42  A    between atoms: _102  and  _104
REMARK   43  A    between atoms: _104  and  _105
REMARK   44  A    between atoms: _109  and  _110
REMARK   45  A    between atoms: _115  and  _117
REMARK   46  A    between atoms: _117  and  _118
REMARK   47  A    between atoms: _117  and  _120
REMARK   48  A    between atoms: _120  and  _121
REMARK   49  A    between atoms: _121  and  _122
REMARK   50  A    between atoms: _122  and  _123
REMARK   51  A    between atoms: _132  and  _134
REMARK   52  A    between atoms: _134  and  _135
REMARK   53  A    between atoms: _134  and  _137
REMARK   54  A    between atoms: _137  and  _138
REMARK   55  A    between atoms: _144  and  _146
REMARK   56  A    between atoms: _146  and  _147
REMARK   57  A    between atoms: _146  and  _149
REMARK   58  A    between atoms: _149  and  _150
REMARK   59  A    between atoms: _156  and  _157
REMARK   60  A    between atoms: _162  and  _164
REMARK   61  A    between atoms: _164  and  _165
REMARK   62  A    between atoms: _164  and  _167
REMARK   63  A    between atoms: _167  and  _168
REMARK   64  A    between atoms: _170  and  _172
REMARK   65  A    between atoms: _172  and  _173
REMARK   66  A    between atoms: _172  and  _175
REMARK   67  A    between atoms: _175  and  _176
REMARK   68  A    between atoms: _181  and  _182
REMARK   69  A    between atoms: _184  and  _186
REMARK   70  A    between atoms: _186  and  _187
REMARK   71  A    between atoms: _186  and  _189
REMARK   72  A    between atoms: _189  and  _190
REMARK   73  A    between atoms: _190  and  _191
REMARK   74  A    between atoms: _191  and  _192
REMARK   75  A    between atoms: _201  and  _203
REMARK   76  A    between atoms: _203  and  _204
REMARK   77  A    between atoms: _203  and  _206
REMARK   78  A    between atoms: _206  and  _207
REMARK   79  A    between atoms: _212  and  _214
REMARK   80  A    between atoms: _214  and  _215
REMARK   81  A    between atoms: _218  and  _220
REMARK   82  A    between atoms: _220  and  _221
REMARK   83  A    between atoms: _224  and  _226
REMARK   84  A    between atoms: _226  and  _227
REMARK   85  A    between atoms: _230  and  _232
REMARK   86  A    between atoms: _232  and  _233
REMARK   87  A    between atoms: _232  and  _235
REMARK   88  A    between atoms: _235  and  _236
REMARK   89  A    between atoms: _236  and  _237
REMARK   90  A    between atoms: _237  and  _238
REMARK   91  A    between atoms: _247  and  _249
REMARK   92  A    between atoms: _249  and  _250
REMARK   93  A    between atoms: _249  and  _252
REMARK   94  A    between atoms: _252  and  _253
REMARK   95  A    between atoms: _253  and  _254
REMARK   96  A    between atoms: _254  and  _255
REMARK   97  A    between atoms: _264  and  _266
REMARK   98  A    between atoms: _266  and  _267
REMARK   99  A    between atoms: _266  and  _269
REMARK  100  A    between atoms: _269  and  _270
REMARK  101  A    between atoms: _276  and  _278
REMARK  102  A    between atoms: _278  and  _279
REMARK  103  A    between atoms: _278  and  _281
REMARK  104  A    between atoms: _281  and  _282
REMARK  105  A    between atoms: _285  and  _287
REMARK  106  A    between atoms: _287  and  _288
REMARK  107  A    between atoms: _290  and  _292
REMARK  108  A    between atoms: _292  and  _293
REMARK  109  A    between atoms: _292  and  _295
REMARK  110  A    between atoms: _295  and  _296
REMARK  111  A    between atoms: _300  and  _301
REMARK                            x       y       z     vdW  Elec       q    Type
REMARK                         _______ _______ _______ _____ _____    ______ ____
ROOT
ATOM      1  CA  MET A   1      -6.206 -18.882   4.404  0.00  0.00    +0.134 C 
ENDROOT
BRANCH   1   2
ATOM      2  N   MET A   1      -6.357 -18.081   5.628  0.00  0.00    -0.239 NA
ATOM      3  H   MET A   1      -7.232 -17.536   5.762  0.00  0.00    +0.142 HD
ENDBRANCH   1   2
BRANCH   1   4
ATOM      4  C   MET A   1      -5.213 -18.305   3.388  0.00  0.00    +0.224 C 
ATOM      5  O   MET A   1      -4.697 -19.040   2.548  0.00  0.00    -0.287 OA
ENDBRANCH   1   4
BRANCH   1   6
ATOM      6  CB  MET A   1      -7.573 -19.115   3.722  0.00  0.00    +0.037 C 
BRANCH   6   7
ATOM      7  CG  MET A   1      -8.551 -20.002   4.522  0.00  0.00    +0.059 C 
BRANCH   7   8
ATOM      8  SD  MET A   1      -8.027 -21.697   4.892  0.00  0.00    -0.139 S 
ATOM      9  CE  MET A   1      -8.103 -22.429   3.274  0.00  0.00    +0.069 C 
ENDBRANCH   7   8
ENDBRANCH   6   7
ENDBRANCH   1   6
TORSDOF 5
REMARK  Name = ../refined-set-2016/3r88/3r88_pocket.pdb
REMARK  111 active torsions:
REMARK  status: ('A' for Active; 'I' for Inactive)
REMARK    1  A    between atoms: _1  and  _3
REMARK    2  A    between atoms: _3  and  _4
REMARK    3  A    between atoms: _3  and  _6
REMARK    4  A    between atoms: _6  and  _7
REMARK    5  A    between atoms: _7  and  _8
REMARK    6  A    between atoms: _10  and  _12
REMARK    7  A    between atoms: _12  and  _13
REMARK    8  A    between atoms: _12  and  _15
REMARK    9  A    between atoms: _15  and  _16
REMARK   10  A    between atoms: _16  and  _17
REMARK   11  A    between atoms: _19  and  _21
REMARK   12  A    between atoms: _21  and  _22
REMARK   13  A    between atoms: _21  and  _24
REMARK   14  A    between atoms: _24  and  _25
REMARK   15  A    between atoms: _25  and  _26
REMARK   16  A    between atoms: _28  and  _30
REMARK   17  A    between atoms: _30  and  _31
REMARK   18  A    between atoms: _34  and  _36
REMARK   19  A    between atoms: _36  and  _37
REMARK   20  A    between atoms: _36  and  _39
REMARK   21  A    between atoms: _39  and  _40
REMARK   22  A    between atoms: _45  and  _47
REMARK   23  A    between atoms: _47  and  _48
REMARK   24  A    between atoms: _50  and  _52
REMARK   25  A    between atoms: _52  and  _53
REMARK   26  A    between atoms: _52  and  _55
REMARK   27  A    between atoms: _55  and  _56
REMARK   28  A    between atoms: _61  and  _63
REMARK   29  A    between atoms: _63  and  _64
REMARK   30  A    between atoms: _63  and  _66
REMARK   31  A    between atoms: _66  and  _67
REMARK   32  A    between atoms: _67  and  _68
REMARK   33  A    between atoms: _68  and  _69
REMARK   34  A    between atoms: _78  and  _80
REMARK   35  A    between atoms: _80  and  _81
REMARK   36  A    between atoms: _84  and  _86
REMARK   37  A    between atoms: _86  and  _87
REMARK   38  A    between atoms: _90  and  _92
REMARK   39  A    between atoms: _92  and  _93
REMARK   40  A    between atoms: _92  and  _95
REMARK   41  A    between atoms: _95  and  _96
REMARK   42  A    between atoms: _102  and  _104
REMARK   43  A    between atoms: _104  and  _105
REMARK   44  A    between atoms: _109  and  _110
REMARK   45  A    between atoms: _115  and  _117
REMARK   46  A    between atoms: _117  and  _118
REMARK   47  A    between atoms: _117  and  _120
REMARK   48  A    between atoms: _120  and  _121
REMARK   49  A    between atoms: _121  and  _122
REMARK   50  A    between atoms: _122  and  _123
REMARK   51  A    between atoms: _132  and  _134
REMARK   52  A    between atoms: _134  and  _135
REMARK   53  A    between atoms: _134  and  _137
REMARK   54  A    between atoms: _137  and  _138
REMARK   55  A    between atoms: _144  and  _146
REMARK   56  A    between atoms: _146  and  _147
REMARK   57  A    between atoms: _146  and  _149
REMARK   58  A    between atoms: _149  and  _150
REMARK   59  A    between atoms: _156  and  _157
REMARK   60  A    between atoms: _162  and  _164
REMARK   61  A    between atoms: _164  and  _165
REMARK   62  A    between atoms: _164  and  _167
REMARK   63  A    between atoms: _167  and  _168
REMARK   64  A    between atoms: _170  and  _172
REMARK   65  A    between atoms: _172  and  _173
REMARK   66  A    between atoms: _172  and  _175
REMARK   67  A    between atoms: _175  and  _176
REMARK   68  A    between atoms: _181  and  _182
REMARK   69  A    between atoms: _184  and  _186
REMARK   70  A    between atoms: _186  and  _187
REMARK   71  A    between atoms: _186  and  _189
REMARK   72  A    between atoms: _189  and  _190
REMARK   73  A    between atoms: _190  and  _191
REMARK   74  A    between atoms: _191  and  _192
REMARK   75  A    between atoms: _201  and  _203
REMARK   76  A    between atoms: _203  and  _204
REMARK   77  A    between atoms: _203  and  _206
REMARK   78  A    between atoms: _206  and  _207
REMARK   79  A    between atoms: _212  and  _214
REMARK   80  A    between atoms: _214  and  _215
REMARK   81  A    between atoms: _218  and  _220
REMARK   82  A    between atoms: _220  and  _221
REMARK   83  A    between atoms: _224  and  _226
REMARK   84  A    between atoms: _226  and  _227
REMARK   85  A    between atoms: _230  and  _232
REMARK   86  A    between atoms: _232  and  _233
REMARK   87  A    between atoms: _232  and  _235
REMARK   88  A    between atoms: _235  and  _236
REMARK   89  A    between atoms: _236  and  _237
REMARK   90  A    between atoms: _237  and  _238
REMARK   91  A    between atoms: _247  and  _249
REMARK   92  A    between atoms: _249  and  _250
REMARK   93  A    between atoms: _249  and  _252
REMARK   94  A    between atoms: _252  and  _253
REMARK   95  A    between atoms: _253  and  _254
REMARK   96  A    between atoms: _254  and  _255
REMARK   97  A    between atoms: _264  and  _266
REMARK   98  A    between atoms: _266  and  _267
REMARK   99  A    between atoms: _266  and  _269
REMARK  100  A    between atoms: _269  and  _270
REMARK  101  A    between atoms: _276  and  _278
REMARK  102  A    between atoms: _278  and  _279
REMARK  103  A    between atoms: _278  and  _281
REMARK  104  A    between atoms: _281  and  _282
REMARK  105  A    between atoms: _285  and  _287
REMARK  106  A    between atoms: _287  and  _288
REMARK  107  A    between atoms: _290  and  _292
REMARK  108  A    between atoms: _292  and  _293
REMARK  109  A    between atoms: _292  and  _295
REMARK  110  A    between atoms: _295  and  _296
REMARK  111  A    between atoms: _300  and  _301
REMARK                            x       y       z     vdW  Elec       q    Type
REMARK                         _______ _______ _______ _____ _____    ______ ____
ROOT
ATOM      1  CA  MET A   1     -12.448 -22.535   3.091  0.00  0.00    +0.134 C 
ENDROOT
BRANCH   1   2
ATOM      2  N   MET A   1     -13.214 -21.360   3.487  0.00  0.00    -0.239 NA
ATOM      3  H   MET A   1     -13.749 -21.355   4.379  0.00  0.00    +0.142 HD
ENDBRANCH   1   2
BRANCH   1   4
ATOM      4  C   MET A   1     -12.848 -23.014   1.711  0.00  0.00    +0.224 C 
ATOM      5  O   MET A   1     -11.994 -23.305   0.860  0.00  0.00    -0.287 OA
ENDBRANCH   1   4
BRANCH   1   6
ATOM      6  CB  MET A   1     -12.588 -23.683   4.089  0.00  0.00    +0.037 C 
BRANCH   6   7
ATOM      7  CG  MET A   1     -11.829 -23.416   5.358  0.00  0.00    +0.059 C 
BRANCH   7   8
ATOM      8  SD  MET A   1     -11.720 -24.842   6.454  0.00  0.00    -0.139 S 
ATOM      9  CE  MET A   1     -11.003 -26.063   5.461  0.00  0.00    +0.069 C 
ENDBRANCH   7   8
ENDBRANCH   6   7
ENDBRANCH   1   6
TORSDOF 5
REMARK  Name = ../refined-set-2016/3r88/3r88_pocket.pdb
REMARK  111 active torsions:
REMARK  status: ('A' for Active; 'I' for Inactive)
REMARK    1  A    between atoms: _1  and  _3
REMARK    2  A    between atoms: _3  and  _4
REMARK    3  A    between atoms: _3  and  _6
REMARK    4  A    between atoms: _6  and  _7
REMARK    5  A    between atoms: _7  and  _8
REMARK    6  A    between atoms: _10  and  _12
REMARK    7  A    between atoms: _12  and  _13
REMARK    8  A    between atoms: _12  and  _15
REMARK    9  A    between atoms: _15  and  _16
REMARK   10  A    between atoms: _16  and  _17
REMARK   11  A    between atoms: _19  and  _21
REMARK   12  A    between atoms: _21  and  _22
REMARK   13  A    between atoms: _21  and  _24
REMARK   14  A    between atoms: _24  and  _25
REMARK   15  A    between atoms: _25  and  _26
REMARK   16  A    between atoms: _28  and  _30
REMARK   17  A    between atoms: _30  and  _31
REMARK   18  A    between atoms: _34  and  _36
REMARK   19  A    between atoms: _36  and  _37
REMARK   20  A    between atoms: _36  and  _39
REMARK   21  A    between atoms: _39  and  _40
REMARK   22  A    between atoms: _45  and  _47
REMARK   23  A    between atoms: _47  and  _48
REMARK   24  A    between atoms: _50  and  _52
REMARK   25  A    between atoms: _52  and  _53
REMARK   26  A    between atoms: _52  and  _55
REMARK   27  A    between atoms: _55  and  _56
REMARK   28  A    between atoms: _61  and  _63
REMARK   29  A    between atoms: _63  and  _64
REMARK   30  A    between atoms: _63  and  _66
REMARK   31  A    between atoms: _66  and  _67
REMARK   32  A    between atoms: _67  and  _68
REMARK   33  A    between atoms: _68  and  _69
REMARK   34  A    between atoms: _78  and  _80
REMARK   35  A    between atoms: _80  and  _81
REMARK   36  A    between atoms: _84  and  _86
REMARK   37  A    between atoms: _86  and  _87
REMARK   38  A    between atoms: _90  and  _92
REMARK   39  A    between atoms: _92  and  _93
REMARK   40  A    between atoms: _92  and  _95
REMARK   41  A    between atoms: _95  and  _96
REMARK   42  A    between atoms: _102  and  _104
REMARK   43  A    between atoms: _104  and  _105
REMARK   44  A    between atoms: _109  and  _110
REMARK   45  A    between atoms: _115  and  _117
REMARK   46  A    between atoms: _117  and  _118
REMARK   47  A    between atoms: _117  and  _120
REMARK   48  A    between atoms: _120  and  _121
REMARK   49  A    between atoms: _121  and  _122
REMARK   50  A    between atoms: _122  and  _123
REMARK   51  A    between atoms: _132  and  _134
REMARK   52  A    between atoms: _134  and  _135
REMARK   53  A    between atoms: _134  and  _137
REMARK   54  A    between atoms: _137  and  _138
REMARK   55  A    between atoms: _144  and  _146
REMARK   56  A    between atoms: _146  and  _147
REMARK   57  A    between atoms: _146  and  _149
REMARK   58  A    between atoms: _149  and  _150
REMARK   59  A    between atoms: _156  and  _157
REMARK   60  A    between atoms: _162  and  _164
REMARK   61  A    between atoms: _164  and  _165
REMARK   62  A    between atoms: _164  and  _167
REMARK   63  A    between atoms: _167  and  _168
REMARK   64  A    between atoms: _170  and  _172
REMARK   65  A    between atoms: _172  and  _173
REMARK   66  A    between atoms: _172  and  _175
REMARK   67  A    between atoms: _175  and  _176
REMARK   68  A    between atoms: _181  and  _182
REMARK   69  A    between atoms: _184  and  _186
REMARK   70  A    between atoms: _186  and  _187
REMARK   71  A    between atoms: _186  and  _189
REMARK   72  A    between atoms: _189  and  _190
REMARK   73  A    between atoms: _190  and  _191
REMARK   74  A    between atoms: _191  and  _192
REMARK   75  A    between atoms: _201  and  _203
REMARK   76  A    between atoms: _203  and  _204
REMARK   77  A    between atoms: _203  and  _206
REMARK   78  A    between atoms: _206  and  _207
REMARK   79  A    between atoms: _212  and  _214
REMARK   80  A    between atoms: _214  and  _215
REMARK   81  A    between atoms: _218  and  _220
REMARK   82  A    between atoms: _220  and  _221
REMARK   83  A    between atoms: _224  and  _226
REMARK   84  A    between atoms: _226  and  _227
REMARK   85  A    between atoms: _230  and  _232
REMARK   86  A    between atoms: _232  and  _233
REMARK   87  A    between atoms: _232  and  _235
REMARK   88  A    between atoms: _235  and  _236
REMARK   89  A    between atoms: _236  and  _237
REMARK   90  A    between atoms: _237  and  _238
REMARK   91  A    between atoms: _247  and  _249
REMARK   92  A    between atoms: _249  and  _250
REMARK   93  A    between atoms: _249  and  _252
REMARK   94  A    between atoms: _252  and  _253
REMARK   95  A    between atoms: _253  and  _254
REMARK   96  A    between atoms: _254  and  _255
REMARK   97  A    between atoms: _264  and  _266
REMARK   98  A    between atoms: _266  and  _267
REMARK   99  A    between atoms: _266  and  _269
REMARK  100  A    between atoms: _269  and  _270
REMARK  101  A    between atoms: _276  and  _278
REMARK  102  A    between atoms: _278  and  _279
REMARK  103  A    between atoms: _278  and  _281
REMARK  104  A    between atoms: _281  and  _282
REMARK  105  A    between atoms: _285  and  _287
REMARK  106  A    between atoms: _287  and  _288
REMARK  107  A    between atoms: _290  and  _292
REMARK  108  A    between atoms: _292  and  _293
REMARK  109  A    between atoms: _292  and  _295
REMARK  110  A    between atoms: _295  and  _296
REMARK  111  A    between atoms: _300  and  _301
REMARK                            x       y       z     vdW  Elec       q    Type
REMARK                         _______ _______ _______ _____ _____    ______ ____
ROOT
ATOM      1  CA  ALA A   1     -10.529 -25.035  -2.111  0.00  0.00    +0.133 C 
ATOM      2  CB  ALA A   1     -11.617 -25.904  -1.496  0.00  0.00    +0.027 C 
ENDROOT
BRANCH   1   3
ATOM      3  N   ALA A   1     -10.760 -23.623  -1.817  0.00  0.00    -0.239 NA
ATOM      4  H   ALA A   1     -11.713 -23.308  -1.546  0.00  0.00    +0.142 HD
ENDBRANCH   1   3
BRANCH   1   5
ATOM      5  C   ALA A   1     -10.488 -25.274  -3.607  0.00  0.00    +0.224 C 
ATOM      6  O   ALA A   1     -11.087 -24.521  -4.383  0.00  0.00    -0.287 OA
ENDBRANCH   1   5
TORSDOF 2
REMARK  Name = ../refined-set-2016/3r88/3r88_pocket.pdb
REMARK  111 active torsions:
REMARK  status: ('A' for Active; 'I' for Inactive)
REMARK    1  A    between atoms: _1  and  _3
REMARK    2  A    between atoms: _3  and  _4
REMARK    3  A    between atoms: _3  and  _6
REMARK    4  A    between atoms: _6  and  _7
REMARK    5  A    between atoms: _7  and  _8
REMARK    6  A    between atoms: _10  and  _12
REMARK    7  A    between atoms: _12  and  _13
REMARK    8  A    between atoms: _12  and  _15
REMARK    9  A    between atoms: _15  and  _16
REMARK   10  A    between atoms: _16  and  _17
REMARK   11  A    between atoms: _19  and  _21
REMARK   12  A    between atoms: _21  and  _22
REMARK   13  A    between atoms: _21  and  _24
REMARK   14  A    between atoms: _24  and  _25
REMARK   15  A    between atoms: _25  and  _26
REMARK   16  A    between atoms: _28  and  _30
REMARK   17  A    between atoms: _30  and  _31
REMARK   18  A    between atoms: _34  and  _36
REMARK   19  A    between atoms: _36  and  _37
REMARK   20  A    between atoms: _36  and  _39
REMARK   21  A    between atoms: _39  and  _40
REMARK   22  A    between atoms: _45  and  _47
REMARK   23  A    between atoms: _47  and  _48
REMARK   24  A    between atoms: _50  and  _52
REMARK   25  A    between atoms: _52  and  _53
REMARK   26  A    between atoms: _52  and  _55
REMARK   27  A    between atoms: _55  and  _56
REMARK   28  A    between atoms: _61  and  _63
REMARK   29  A    between atoms: _63  and  _64
REMARK   30  A    between atoms: _63  and  _66
REMARK   31  A    between atoms: _66  and  _67
REMARK   32  A    between atoms: _67  and  _68
REMARK   33  A    between atoms: _68  and  _69
REMARK   34  A    between atoms: _78  and  _80
REMARK   35  A    between atoms: _80  and  _81
REMARK   36  A    between atoms: _84  and  _86
REMARK   37  A    between atoms: _86  and  _87
REMARK   38  A    between atoms: _90  and  _92
REMARK   39  A    between atoms: _92  and  _93
REMARK   40  A    between atoms: _92  and  _95
REMARK   41  A    between atoms: _95  and  _96
REMARK   42  A    between atoms: _102  and  _104
REMARK   43  A    between atoms: _104  and  _105
REMARK   44  A    between atoms: _109  and  _110
REMARK   45  A    between atoms: _115  and  _117
REMARK   46  A    between atoms: _117  and  _118
REMARK   47  A    between atoms: _117  and  _120
REMARK   48  A    between atoms: _120  and  _121
REMARK   49  A    between atoms: _121  and  _122
REMARK   50  A    between atoms: _122  and  _123
REMARK   51  A    between atoms: _132  and  _134
REMARK   52  A    between atoms: _134  and  _135
REMARK   53  A    between atoms: _134  and  _137
REMARK   54  A    between atoms: _137  and  _138
REMARK   55  A    between atoms: _144  and  _146
REMARK   56  A    between atoms: _146  and  _147
REMARK   57  A    between atoms: _146  and  _149
REMARK   58  A    between atoms: _149  and  _150
REMARK   59  A    between atoms: _156  and  _157
REMARK   60  A    between atoms: _162  and  _164
REMARK   61  A    between atoms: _164  and  _165
REMARK   62  A    between atoms: _164  and  _167
REMARK   63  A    between atoms: _167  and  _168
REMARK   64  A    between atoms: _170  and  _172
REMARK   65  A    between atoms: _172  and  _173
REMARK   66  A    between atoms: _172  and  _175
REMARK   67  A    between atoms: _175  and  _176
REMARK   68  A    between atoms: _181  and  _182
REMARK   69  A    between atoms: _184  and  _186
REMARK   70  A    between atoms: _186  and  _187
REMARK   71  A    between atoms: _186  and  _189
REMARK   72  A    between atoms: _189  and  _190
REMARK   73  A    between atoms: _190  and  _191
REMARK   74  A    between atoms: _191  and  _192
REMARK   75  A    between atoms: _201  and  _203
REMARK   76  A    between atoms: _203  and  _204
REMARK   77  A    between atoms: _203  and  _206
REMARK   78  A    between atoms: _206  and  _207
REMARK   79  A    between atoms: _212  and  _214
REMARK   80  A    between atoms: _214  and  _215
REMARK   81  A    between atoms: _218  and  _220
REMARK   82  A    between atoms: _220  and  _221
REMARK   83  A    between atoms: _224  and  _226
REMARK   84  A    between atoms: _226  and  _227
REMARK   85  A    between atoms: _230  and  _232
REMARK   86  A    between atoms: _232  and  _233
REMARK   87  A    between atoms: _232  and  _235
REMARK   88  A    between atoms: _235  and  _236
REMARK   89  A    between atoms: _236  and  _237
REMARK   90  A    between atoms: _237  and  _238
REMARK   91  A    between atoms: _247  and  _249
REMARK   92  A    between atoms: _249  and  _250
REMARK   93  A    between atoms: _249  and  _252
REMARK   94  A    between atoms: _252  and  _253
REMARK   95  A    between atoms: _253  and  _254
REMARK   96  A    between atoms: _254  and  _255
REMARK   97  A    between atoms: _264  and  _266
REMARK   98  A    between atoms: _266  and  _267
REMARK   99  A    between atoms: _266  and  _269
REMARK  100  A    between atoms: _269  and  _270
REMARK  101  A    between atoms: _276  and  _278
REMARK  102  A    between atoms: _278  and  _279
REMARK  103  A    between atoms: _278  and  _281
REMARK  104  A    between atoms: _281  and  _282
REMARK  105  A    between atoms: _285  and  _287
REMARK  106  A    between atoms: _287  and  _288
REMARK  107  A    between atoms: _290  and  _292
REMARK  108  A    between atoms: _292  and  _293
REMARK  109  A    between atoms: _292  and  _295
REMARK  110  A    between atoms: _295  and  _296
REMARK  111  A    between atoms: _300  and  _301
REMARK                            x       y       z     vdW  Elec       q    Type
REMARK                         _______ _______ _______ _____ _____    ______ ____
ROOT
ATOM      1  C   ASN A   3      -7.410 -38.260   7.269  0.00  0.00    +0.241 C 
ATOM      2  O   ASN A   3      -8.075 -39.251   7.633  0.00  0.00    -0.273 OA
ATOM      3  N   ARG A   4      -6.124 -38.090   7.543  0.00  0.00    -0.297 N 
ATOM      4  H   ARG A   4      -5.626 -37.275   7.131  0.00  0.00    +0.150 HD
ENDROOT
BRANCH   1   5
ATOM      5  CA  ASN A   3      -8.041 -37.161   6.438  0.00  0.00    +0.158 C 
BRANCH   5   7
ATOM      6  C   GLY A   2      -9.930 -37.027   4.939  0.00  0.00    +0.243 C 
ATOM      7  N   ASN A   3      -9.354 -37.600   5.985  0.00  0.00    -0.297 N 
ATOM      8  H   ASN A   3      -9.843 -38.369   6.487  0.00  0.00    +0.150 HD
ATOM      9  O   GLY A   2      -9.403 -36.119   4.289  0.00  0.00    -0.273 OA
BRANCH   6  10
ATOM     10  CA  GLY A   2     -11.292 -37.573   4.585  0.00  0.00    +0.176 C 
BRANCH  10  13
ATOM     11  C   HIS A   1     -13.354 -36.763   3.687  0.00  0.00    +0.239 C 
ATOM     12  O   HIS A   1     -13.993 -37.334   4.572  0.00  0.00    -0.274 OA
ATOM     13  N   GLY A   2     -12.035 -36.782   3.632  0.00  0.00    -0.296 N 
ATOM     14  H   GLY A   2     -11.534 -36.230   2.907  0.00  0.00    +0.150 HD
BRANCH  11  15
ATOM     15  CA  HIS A   1     -14.073 -35.987   2.594  0.00  0.00    +0.151 C 
BRANCH  15  16
ATOM     16  N   HIS A   1     -15.156 -36.841   2.142  0.00  0.00    -0.238 NA
ATOM     17  H   HIS A   1     -16.092 -36.742   2.584  0.00  0.00    +0.142 HD
ENDBRANCH  15  16
BRANCH  15  18
ATOM     18  CB  HIS A   1     -14.647 -34.685   3.165  0.00  0.00    +0.074 C 
BRANCH  18  19
ATOM     19  CG  HIS A   1     -13.694 -33.526   3.119  0.00  0.00    +0.082 A 
ATOM     20  ND1 HIS A   1     -13.810 -32.432   3.954  0.00  0.00    -0.227 NA
ATOM     21  CE1 HIS A   1     -12.855 -31.564   3.671  0.00  0.00    +0.199 A 
ATOM     22  NE2 HIS A   1     -12.119 -32.060   2.691  0.00  0.00    -0.221 NA
ATOM     23  CD2 HIS A   1     -12.617 -33.290   2.337  0.00  0.00    +0.115 A 
ENDBRANCH  18  19
ENDBRANCH  15  18
ENDBRANCH  11  15
ENDBRANCH  10  13
ENDBRANCH   6  10
ENDBRANCH   5   7
BRANCH   5  24
ATOM     24  CB  ASN A   3      -8.164 -35.872   7.254  0.00  0.00    +0.114 C 
BRANCH  24  25
ATOM     25  CG  ASN A   3      -6.936 -34.965   7.118  0.00  0.00    +0.222 C 
ATOM     26  ND2 ASN A   3      -7.142 -33.672   7.345  0.00  0.00    -0.329 N 
ATOM     27 HD21 ASN A   3      -8.095 -33.331   7.584  0.00  0.00    +0.145 HD
ATOM     28 HD22 ASN A   3      -6.350 -33.001   7.283  0.00  0.00    +0.145 HD
ATOM     29  OD1 ASN A   3      -5.818 -35.422   6.829  0.00  0.00    -0.275 OA
ENDBRANCH  24  25
ENDBRANCH   5  24
ENDBRANCH   1   5
BRANCH   3  30
ATOM     30  CA  ARG A   4      -5.383 -39.008   8.404  0.00  0.00    +0.149 C 
BRANCH  30  31
ATOM     31  C   ARG A   4      -5.724 -38.807   9.894  0.00  0.00    +0.241 C 
ATOM     32  N   ALA A   5      -5.241 -39.729  10.729  0.00  0.00    -0.297 N 
ATOM     33  H   ALA A   5      -4.723 -40.540  10.334  0.00  0.00    +0.150 HD
ATOM     34  O   ARG A   4      -6.417 -37.845  10.273  0.00  0.00    -0.273 OA
BRANCH  32  35
ATOM     35  CA  ALA A   5      -5.413 -39.642  12.190  0.00  0.00    +0.149 C 
ATOM     36  CB  ALA A   5      -4.596 -40.722  12.870  0.00  0.00    +0.031 C 
BRANCH  35  37
ATOM     37  C   ALA A   5      -5.004 -38.277  12.729  0.00  0.00    +0.241 C 
ATOM     38  N   ALA A   6      -5.832 -37.725  13.623  0.00  0.00    -0.298 N 
ATOM     39  H   ALA A   6      -6.779 -38.136  13.749  0.00  0.00    +0.150 HD
ATOM     40  O   ALA A   5      -3.958 -37.740  12.325  0.00  0.00    -0.273 OA
BRANCH  38  41
ATOM     41  CA  ALA A   6      -5.454 -36.560  14.434  0.00  0.00    +0.137 C 
ATOM     42  CB  ALA A   6      -6.528 -35.468  14.373  0.00  0.00    +0.030 C 
BRANCH  41  43
ATOM     43  C   ALA A   6      -5.187 -36.968  15.882  0.00  0.00    +0.227 C 
ATOM     44  O   ALA A   6      -4.113 -36.701  16.412  0.00  0.00    -0.286 OA
ENDBRANCH  41  43
ENDBRANCH  38  41
ENDBRANCH  35  37
ENDBRANCH  32  35
ENDBRANCH  30  31
BRANCH  30  45
ATOM     45  CB  ARG A   4      -3.885 -38.830   8.170  0.00  0.00    +0.033 C 
BRANCH  45  46
ATOM     46  CG  ARG A   4      -3.416 -39.267   6.803  0.00  0.00    +0.045 C 
BRANCH  46  47
ATOM     47  CD  ARG A   4      -1.899 -39.199   6.745  0.00  0.00    +0.174 C 
BRANCH  47  48
ATOM     48  NE  ARG A   4      -1.388 -39.442   5.399  0.00  0.00    -0.265 N 
ATOM     49  CZ  ARG A   4      -1.196 -40.642   4.873  0.00  0.00    +0.342 C 
ATOM     50  NH2 ARG A   4      -1.473 -41.742   5.570  0.00  0.00    -0.292 N 
ATOM     51 HH21 ARG A   4      -1.844 -41.664   6.538  0.00  0.00    +0.255 HD
ATOM     52 HH22 ARG A   4      -1.318 -42.679   5.146  0.00  0.00    +0.255 HD
ATOM     53  NH1 ARG A   4      -0.709 -40.744   3.649  0.00  0.00    -0.292 N 
ATOM     54 HH11 ARG A   4      -0.555 -41.682   3.227  0.00  0.00    +0.255 HD
ATOM     55 HH12 ARG A   4      -0.480 -39.886   3.107  0.00  0.00    +0.255 HD
ATOM     56  HE  ARG A   4      -1.159 -38.615   4.812  0.00  0.00    +0.259 HD
ENDBRANCH  47  48
ENDBRANCH  46  47
ENDBRANCH  45  46
ENDBRANCH  30  45
ENDBRANCH   3  30
TORSDOF 20
REMARK  Name = ../refined-set-2016/3r88/3r88_pocket.pdb
REMARK  111 active torsions:
REMARK  status: ('A' for Active; 'I' for Inactive)
REMARK    1  A    between atoms: _1  and  _3
REMARK    2  A    between atoms: _3  and  _4
REMARK    3  A    between atoms: _3  and  _6
REMARK    4  A    between atoms: _6  and  _7
REMARK    5  A    between atoms: _7  and  _8
REMARK    6  A    between atoms: _10  and  _12
REMARK    7  A    between atoms: _12  and  _13
REMARK    8  A    between atoms: _12  and  _15
REMARK    9  A    between atoms: _15  and  _16
REMARK   10  A    between atoms: _16  and  _17
REMARK   11  A    between atoms: _19  and  _21
REMARK   12  A    between atoms: _21  and  _22
REMARK   13  A    between atoms: _21  and  _24
REMARK   14  A    between atoms: _24  and  _25
REMARK   15  A    between atoms: _25  and  _26
REMARK   16  A    between atoms: _28  and  _30
REMARK   17  A    between atoms: _30  and  _31
REMARK   18  A    between atoms: _34  and  _36
REMARK   19  A    between atoms: _36  and  _37
REMARK   20  A    between atoms: _36  and  _39
REMARK   21  A    between atoms: _39  and  _40
REMARK   22  A    between atoms: _45  and  _47
REMARK   23  A    between atoms: _47  and  _48
REMARK   24  A    between atoms: _50  and  _52
REMARK   25  A    between atoms: _52  and  _53
REMARK   26  A    between atoms: _52  and  _55
REMARK   27  A    between atoms: _55  and  _56
REMARK   28  A    between atoms: _61  and  _63
REMARK   29  A    between atoms: _63  and  _64
REMARK   30  A    between atoms: _63  and  _66
REMARK   31  A    between atoms: _66  and  _67
REMARK   32  A    between atoms: _67  and  _68
REMARK   33  A    between atoms: _68  and  _69
REMARK   34  A    between atoms: _78  and  _80
REMARK   35  A    between atoms: _80  and  _81
REMARK   36  A    between atoms: _84  and  _86
REMARK   37  A    between atoms: _86  and  _87
REMARK   38  A    between atoms: _90  and  _92
REMARK   39  A    between atoms: _92  and  _93
REMARK   40  A    between atoms: _92  and  _95
REMARK   41  A    between atoms: _95  and  _96
REMARK   42  A    between atoms: _102  and  _104
REMARK   43  A    between atoms: _104  and  _105
REMARK   44  A    between atoms: _109  and  _110
REMARK   45  A    between atoms: _115  and  _117
REMARK   46  A    between atoms: _117  and  _118
REMARK   47  A    between atoms: _117  and  _120
REMARK   48  A    between atoms: _120  and  _121
REMARK   49  A    between atoms: _121  and  _122
REMARK   50  A    between atoms: _122  and  _123
REMARK   51  A    between atoms: _132  and  _134
REMARK   52  A    between atoms: _134  and  _135
REMARK   53  A    between atoms: _134  and  _137
REMARK   54  A    between atoms: _137  and  _138
REMARK   55  A    between atoms: _144  and  _146
REMARK   56  A    between atoms: _146  and  _147
REMARK   57  A    between atoms: _146  and  _149
REMARK   58  A    between atoms: _149  and  _150
REMARK   59  A    between atoms: _156  and  _157
REMARK   60  A    between atoms: _162  and  _164
REMARK   61  A    between atoms: _164  and  _165
REMARK   62  A    between atoms: _164  and  _167
REMARK   63  A    between atoms: _167  and  _168
REMARK   64  A    between atoms: _170  and  _172
REMARK   65  A    between atoms: _172  and  _173
REMARK   66  A    between atoms: _172  and  _175
REMARK   67  A    between atoms: _175  and  _176
REMARK   68  A    between atoms: _181  and  _182
REMARK   69  A    between atoms: _184  and  _186
REMARK   70  A    between atoms: _186  and  _187
REMARK   71  A    between atoms: _186  and  _189
REMARK   72  A    between atoms: _189  and  _190
REMARK   73  A    between atoms: _190  and  _191
REMARK   74  A    between atoms: _191  and  _192
REMARK   75  A    between atoms: _201  and  _203
REMARK   76  A    between atoms: _203  and  _204
REMARK   77  A    between atoms: _203  and  _206
REMARK   78  A    between atoms: _206  and  _207
REMARK   79  A    between atoms: _212  and  _214
REMARK   80  A    between atoms: _214  and  _215
REMARK   81  A    between atoms: _218  and  _220
REMARK   82  A    between atoms: _220  and  _221
REMARK   83  A    between atoms: _224  and  _226
REMARK   84  A    between atoms: _226  and  _227
REMARK   85  A    between atoms: _230  and  _232
REMARK   86  A    between atoms: _232  and  _233
REMARK   87  A    between atoms: _232  and  _235
REMARK   88  A    between atoms: _235  and  _236
REMARK   89  A    between atoms: _236  and  _237
REMARK   90  A    between atoms: _237  and  _238
REMARK   91  A    between atoms: _247  and  _249
REMARK   92  A    between atoms: _249  and  _250
REMARK   93  A    between atoms: _249  and  _252
REMARK   94  A    between atoms: _252  and  _253
REMARK   95  A    between atoms: _253  and  _254
REMARK   96  A    between atoms: _254  and  _255
REMARK   97  A    between atoms: _264  and  _266
REMARK   98  A    between atoms: _266  and  _267
REMARK   99  A    between atoms: _266  and  _269
REMARK  100  A    between atoms: _269  and  _270
REMARK  101  A    between atoms: _276  and  _278
REMARK  102  A    between atoms: _278  and  _279
REMARK  103  A    between atoms: _278  and  _281
REMARK  104  A    between atoms: _281  and  _282
REMARK  105  A    between atoms: _285  and  _287
REMARK  106  A    between atoms: _287  and  _288
REMARK  107  A    between atoms: _290  and  _292
REMARK  108  A    between atoms: _292  and  _293
REMARK  109  A    between atoms: _292  and  _295
REMARK  110  A    between atoms: _295  and  _296
REMARK  111  A    between atoms: _300  and  _301
REMARK                            x       y       z     vdW  Elec       q    Type
REMARK                         _______ _______ _______ _____ _____    ______ ____
ROOT
ATOM      1  C   HIS A   6      -6.000 -26.985   1.309  0.00  0.00    +0.244 C 
ATOM      2  O   HIS A   6      -5.671 -26.799   2.481  0.00  0.00    -0.273 OA
ATOM      3  N   PRO A   7      -5.142 -26.824   0.291  0.00  0.00    -0.272 N 
ATOM      4  CA  PRO A   7      -3.727 -26.522   0.584  0.00  0.00    +0.152 C 
ATOM      5  CB  PRO A   7      -3.107 -26.364  -0.820  0.00  0.00    +0.031 C 
ATOM      6  CG  PRO A   7      -4.296 -25.998  -1.703  0.00  0.00    +0.024 C 
ATOM      7  CD  PRO A   7      -5.392 -26.879  -1.163  0.00  0.00    +0.094 C 
ENDROOT
BRANCH   4   8
ATOM      8  C   PRO A   7      -3.505 -25.236   1.379  0.00  0.00    +0.241 C 
ATOM      9  O   PRO A   7      -2.538 -25.156   2.141  0.00  0.00    -0.273 OA
ATOM     10  N   SER A   8      -4.378 -24.254   1.200  0.00  0.00    -0.295 N 
ATOM     11  H   SER A   8      -5.182 -24.410   0.560  0.00  0.00    +0.150 HD
BRANCH  10  12
ATOM     12  CA  SER A   8      -4.252 -22.963   1.868  0.00  0.00    +0.178 C 
BRANCH  12  13
ATOM     13  C   SER A   8      -4.573 -23.037   3.359  0.00  0.00    +0.243 C 
ATOM     14  O   SER A   8      -4.321 -22.085   4.088  0.00  0.00    -0.273 OA
ATOM     15  N   TYR A   9      -5.108 -24.176   3.797  0.00  0.00    -0.297 N 
ATOM     16  H   TYR A   9      -5.311 -24.933   3.114  0.00  0.00    +0.150 HD
BRANCH  15  17
ATOM     17  CA  TYR A   9      -5.418 -24.393   5.206  0.00  0.00    +0.153 C 
BRANCH  17  18
ATOM     18  C   TYR A   9      -4.177 -24.787   6.018  0.00  0.00    +0.241 C 
ATOM     19  O   TYR A   9      -4.234 -24.885   7.245  0.00  0.00    -0.273 OA
ATOM     20  N   ARG A  10      -3.044 -24.979   5.342  0.00  0.00    -0.297 N 
ATOM     21  H   ARG A  10      -3.010 -24.771   4.324  0.00  0.00    +0.150 HD
BRANCH  20  22
ATOM     22  CA  ARG A  10      -1.843 -25.481   6.022  0.00  0.00    +0.149 C 
BRANCH  22  23
ATOM     23  C   ARG A  10      -1.416 -24.684   7.262  0.00  0.00    +0.241 C 
ATOM     24  O   ARG A  10      -0.928 -25.276   8.222  0.00  0.00    -0.273 OA
ATOM     25  N   HIS A  11      -1.591 -23.362   7.229  0.00  0.00    -0.297 N 
ATOM     26  H   HIS A  11      -2.014 -22.926   6.385  0.00  0.00    +0.150 HD
BRANCH  25  27
ATOM     27  CA  HIS A  11      -1.200 -22.510   8.358  0.00  0.00    +0.155 C 
BRANCH  27  28
ATOM     28  C   HIS A  11      -2.076 -22.760   9.542  0.00  0.00    +0.241 C 
ATOM     29  O   HIS A  11      -1.571 -22.861  10.662  0.00  0.00    -0.273 OA
ATOM     30  N   ALA A  12      -3.386 -22.869   9.297  0.00  0.00    -0.297 N 
ATOM     31  H   ALA A  12      -3.740 -22.708   8.332  0.00  0.00    +0.150 HD
BRANCH  30  32
ATOM     32  CA  ALA A  12      -4.332 -23.211  10.362  0.00  0.00    +0.149 C 
ATOM     33  CB  ALA A  12      -5.790 -23.141   9.845  0.00  0.00    +0.031 C 
BRANCH  32  34
ATOM     34  C   ALA A  12      -4.024 -24.603  10.918  0.00  0.00    +0.241 C 
ATOM     35  O   ALA A  12      -4.068 -24.824  12.137  0.00  0.00    -0.273 OA
ATOM     36  N   ALA A  13      -3.732 -25.553  10.026  0.00  0.00    -0.297 N 
ATOM     37  H   ALA A  13      -3.656 -25.302   9.020  0.00  0.00    +0.150 HD
BRANCH  36  38
ATOM     38  CA  ALA A  13      -3.515 -26.956  10.442  0.00  0.00    +0.149 C 
ATOM     39  CB  ALA A  13      -3.363 -27.856   9.211  0.00  0.00    +0.031 C 
BRANCH  38  40
ATOM     40  C   ALA A  13      -2.290 -27.053  11.363  0.00  0.00    +0.241 C 
ATOM     41  O   ALA A  13      -2.313 -27.760  12.377  0.00  0.00    -0.273 OA
ATOM     42  N   ALA A  14      -1.254 -26.282  11.049  0.00  0.00    -0.298 N 
ATOM     43  H   ALA A  14      -1.311 -25.682  10.201  0.00  0.00    +0.150 HD
BRANCH  42  44
ATOM     44  CA  ALA A  14      -0.029 -26.251  11.863  0.00  0.00    +0.137 C 
ATOM     45  CB  ALA A  14       1.041 -25.379  11.190  0.00  0.00    +0.030 C 
BRANCH  44  46
ATOM     46  C   ALA A  14      -0.326 -25.739  13.274  0.00  0.00    +0.227 C 
ATOM     47  O   ALA A  14       0.139 -26.319  14.253  0.00  0.00    -0.286 OA
ENDBRANCH  44  46
ENDBRANCH  42  44
ENDBRANCH  38  40
ENDBRANCH  36  38
ENDBRANCH  32  34
ENDBRANCH  30  32
ENDBRANCH  27  28
BRANCH  27  48
ATOM     48  CB  HIS A  11      -1.212 -21.030   7.980  0.00  0.00    +0.076 C 
BRANCH  48  49
ATOM     49  CG  HIS A  11      -0.364 -20.745   6.785  0.00  0.00    +0.082 A 
ATOM     50  CD2 HIS A  11       0.978 -20.791   6.626  0.00  0.00    +0.115 A 
ATOM     51  NE2 HIS A  11       1.239 -20.489   5.314  0.00  0.00    -0.221 NA
ATOM     52  CE1 HIS A  11       0.096 -20.286   4.682  0.00  0.00    +0.199 A 
ATOM     53  ND1 HIS A  11      -0.892 -20.455   5.544  0.00  0.00    -0.227 NA
ENDBRANCH  48  49
ENDBRANCH  27  48
ENDBRANCH  25  27
ENDBRANCH  22  23
BRANCH  22  54
ATOM     54  CB  ARG A  10      -0.675 -25.644   5.043  0.00  0.00    +0.033 C 
BRANCH  54  55
ATOM     55  CG  ARG A  10      -0.118 -24.372   4.463  0.00  0.00    +0.045 C 
BRANCH  55  56
ATOM     56  CD  ARG A  10       1.056 -24.720   3.525  0.00  0.00    +0.174 C 
BRANCH  56  57
ATOM     57  NE  ARG A  10       1.721 -23.512   3.025  0.00  0.00    -0.265 N 
ATOM     58  CZ  ARG A  10       2.859 -22.997   3.502  0.00  0.00    +0.342 C 
ATOM     59  NH2 ARG A  10       3.518 -23.570   4.501  0.00  0.00    -0.292 N 
ATOM     60 HH21 ARG A  10       3.152 -24.442   4.933  0.00  0.00    +0.255 HD
ATOM     61 HH22 ARG A  10       4.401 -23.147   4.852  0.00  0.00    +0.255 HD
ATOM     62  NH1 ARG A  10       3.349 -21.888   2.960  0.00  0.00    -0.292 N 
ATOM     63 HH11 ARG A  10       4.233 -21.479   3.323  0.00  0.00    +0.255 HD
ATOM     64 HH12 ARG A  10       2.848 -21.429   2.173  0.00  0.00    +0.255 HD
ATOM     65  HE  ARG A  10       1.269 -23.014   2.232  0.00  0.00    +0.259 HD
ENDBRANCH  56  57
ENDBRANCH  55  56
ENDBRANCH  54  55
ENDBRANCH  22  54
ENDBRANCH  20  22
ENDBRANCH  17  18
BRANCH  17  66
ATOM     66  CB  TYR A   9      -6.511 -25.458   5.315  0.00  0.00    +0.055 C 
BRANCH  66  67
ATOM     67  CG  TYR A   9      -7.076 -25.716   6.702  0.00  0.00    -0.020 A 
ATOM     68  CD2 TYR A   9      -6.646 -26.798   7.461  0.00  0.00    -0.001 A 
ATOM     69  CE2 TYR A   9      -7.192 -27.053   8.718  0.00  0.00    +0.036 A 
ATOM     70  CZ  TYR A   9      -8.181 -26.234   9.204  0.00  0.00    +0.134 A 
ATOM     71  CE1 TYR A   9      -8.624 -25.162   8.480  0.00  0.00    +0.036 A 
ATOM     72  CD1 TYR A   9      -8.078 -24.907   7.224  0.00  0.00    -0.001 A 
BRANCH  70  73
ATOM     73  OH  TYR A   9      -8.739 -26.492  10.437  0.00  0.00    -0.506 OA
ATOM     74  HH  TYR A   9      -9.431 -25.812  10.634  0.00  0.00    +0.292 HD
ENDBRANCH  70  73
ENDBRANCH  66  67
ENDBRANCH  17  66
ENDBRANCH  15  17
ENDBRANCH  12  13
BRANCH  12  75
ATOM     75  CB  SER A   8      -5.148 -21.928   1.180  0.00  0.00    +0.166 C 
BRANCH  75  76
ATOM     76  OG  SER A   8      -4.660 -21.731  -0.144  0.00  0.00    -0.380 OA
ATOM     77  H   SER A   8      -5.226 -21.064  -0.607  0.00  0.00    +0.211 HD
ENDBRANCH  75  76
ENDBRANCH  12  75
ENDBRANCH  10  12
ENDBRANCH   4   8
BRANCH   1  78
ATOM     78  CA  HIS A   6      -7.433 -27.387   0.970  0.00  0.00    +0.155 C 
BRANCH  78  80
ATOM     79  C   PHE A   5      -8.068 -28.661  -1.017  0.00  0.00    +0.241 C 
ATOM     80  N   HIS A   6      -7.483 -28.627   0.181  0.00  0.00    -0.297 N 
ATOM     81  H   HIS A   6      -7.054 -29.493   0.564  0.00  0.00    +0.150 HD
ATOM     82  O   PHE A   5      -8.593 -27.683  -1.553  0.00  0.00    -0.273 OA
BRANCH  79  83
ATOM     83  CA  PHE A   5      -8.077 -29.996  -1.719  0.00  0.00    +0.153 C 
BRANCH  83  85
ATOM     84  C   ARG A   4      -5.885 -31.072  -1.780  0.00  0.00    +0.241 C 
ATOM     85  N   PHE A   5      -7.100 -30.961  -1.230  0.00  0.00    -0.297 N 
ATOM     86  H   PHE A   5      -7.354 -31.579  -0.433  0.00  0.00    +0.150 HD
ATOM     87  O   ARG A   4      -5.505 -30.364  -2.706  0.00  0.00    -0.273 OA
BRANCH  84  88
ATOM     88  CA  ARG A   4      -4.963 -32.158  -1.205  0.00  0.00    +0.149 C 
BRANCH  88  91
ATOM     89  C   PRO A   3      -4.642 -31.381   1.103  0.00  0.00    +0.241 C 
ATOM     90  O   PRO A   3      -4.087 -30.356   0.726  0.00  0.00    -0.273 OA
ATOM     91  N   ARG A   4      -5.100 -32.303   0.256  0.00  0.00    -0.297 N 
ATOM     92  H   ARG A   4      -5.568 -33.150   0.637  0.00  0.00    +0.150 HD
BRANCH  89  98
ATOM     93  C   ALA A   2      -7.291 -31.893   2.588  0.00  0.00    +0.244 C 
ATOM     94  N   PRO A   3      -6.082 -32.381   2.960  0.00  0.00    -0.272 N 
ATOM     95  CD  PRO A   3      -5.756 -33.532   3.830  0.00  0.00    +0.094 C 
ATOM     96  CG  PRO A   3      -4.413 -33.167   4.383  0.00  0.00    +0.024 C 
ATOM     97  CB  PRO A   3      -3.733 -32.417   3.255  0.00  0.00    +0.031 C 
ATOM     98  CA  PRO A   3      -4.876 -31.608   2.608  0.00  0.00    +0.152 C 
ATOM     99  O   ALA A   2      -7.403 -30.820   1.974  0.00  0.00    -0.273 OA
BRANCH  93 100
ATOM    100  CA  ALA A   2      -8.561 -32.741   2.903  0.00  0.00    +0.149 C 
ATOM    101  CB  ALA A   2      -9.002 -32.632   4.374  0.00  0.00    +0.031 C 
BRANCH 100 103
ATOM    102  C   PHE A   1      -8.063 -34.464   1.242  0.00  0.00    +0.239 C 
ATOM    103  N   ALA A   2      -8.441 -34.150   2.483  0.00  0.00    -0.297 N 
ATOM    104  H   ALA A   2      -8.654 -34.908   3.162  0.00  0.00    +0.150 HD
ATOM    105  O   PHE A   1      -7.685 -33.621   0.426  0.00  0.00    -0.274 OA
BRANCH 102 106
ATOM    106  CA  PHE A   1      -8.145 -35.941   0.835  0.00  0.00    +0.149 C 
BRANCH 106 107
ATOM    107  N   PHE A   1      -9.094 -36.083  -0.264  0.00  0.00    -0.238 NA
ATOM    108  H   PHE A   1      -8.730 -36.286  -1.217  0.00  0.00    +0.142 HD
ENDBRANCH 106 107
BRANCH 106 109
ATOM    109  CB  PHE A   1      -6.782 -36.488   0.390  0.00  0.00    +0.053 C 
BRANCH 109 110
ATOM    110  CG  PHE A   1      -5.771 -36.617   1.513  0.00  0.00    -0.020 A 
ATOM    111  CD2 PHE A   1      -6.117 -37.226   2.723  0.00  0.00    -0.004 A 
ATOM    112  CE2 PHE A   1      -5.198 -37.354   3.758  0.00  0.00    -0.000 A 
ATOM    113  CZ  PHE A   1      -3.908 -36.884   3.583  0.00  0.00    -0.000 A 
ATOM    114  CE1 PHE A   1      -3.539 -36.279   2.373  0.00  0.00    -0.000 A 
ATOM    115  CD1 PHE A   1      -4.479 -36.154   1.339  0.00  0.00    -0.004 A 
ENDBRANCH 109 110
ENDBRANCH 106 109
ENDBRANCH 102 106
ENDBRANCH 100 103
ENDBRANCH  93 100
ENDBRANCH  89  98
ENDBRANCH  88  91
BRANCH  88 116
ATOM    116  CB  ARG A   4      -5.245 -33.507  -1.891  0.00  0.00    +0.033 C 
BRANCH 116 117
ATOM    117  CG  ARG A   4      -5.273 -33.461  -3.414  0.00  0.00    +0.045 C 
BRANCH 117 118
ATOM    118  CD  ARG A   4      -3.884 -33.206  -3.974  0.00  0.00    +0.174 C 
BRANCH 118 119
ATOM    119  NE  ARG A   4      -3.877 -33.120  -5.435  0.00  0.00    -0.265 N 
ATOM    120  HE  ARG A   4      -3.536 -33.947  -5.965  0.00  0.00    +0.259 HD
ATOM    121  CZ  ARG A   4      -4.276 -32.057  -6.137  0.00  0.00    +0.342 C 
ATOM    122  NH2 ARG A   4      -4.756 -30.972  -5.529  0.00  0.00    -0.292 N 
ATOM    123 HH21 ARG A   4      -4.824 -30.945  -4.492  0.00  0.00    +0.255 HD
ATOM    124 HH22 ARG A   4      -5.062 -30.153  -6.092  0.00  0.00    +0.255 HD
ATOM    125  NH1 ARG A   4      -4.219 -32.087  -7.465  0.00  0.00    -0.292 N 
ATOM    126 HH11 ARG A   4      -3.865 -32.935  -7.951  0.00  0.00    +0.255 HD
ATOM    127 HH12 ARG A   4      -4.528 -31.262  -8.018  0.00  0.00    +0.255 HD
ENDBRANCH 118 119
ENDBRANCH 117 118
ENDBRANCH 116 117
ENDBRANCH  88 116
ENDBRANCH  84  88
ENDBRANCH  83  85
BRANCH  83 128
ATOM    128  CB  PHE A   5      -9.492 -30.598  -1.687  0.00  0.00    +0.055 C 
BRANCH 128 129
ATOM    129  CG  PHE A   5      -9.725 -31.597  -2.782  0.00  0.00    -0.020 A 
ATOM    130  CD2 PHE A   5      -9.249 -32.888  -2.665  0.00  0.00    -0.004 A 
ATOM    131  CE2 PHE A   5      -9.424 -33.811  -3.699  0.00  0.00    -0.000 A 
ATOM    132  CZ  PHE A   5     -10.094 -33.413  -4.852  0.00  0.00    -0.000 A 
ATOM    133  CE1 PHE A   5     -10.553 -32.115  -4.987  0.00  0.00    -0.000 A 
ATOM    134  CD1 PHE A   5     -10.371 -31.210  -3.959  0.00  0.00    -0.004 A 
ENDBRANCH 128 129
ENDBRANCH  83 128
ENDBRANCH  79  83
ENDBRANCH  78  80
BRANCH  78 135
ATOM    135  CB  HIS A   6      -8.205 -27.586   2.281  0.00  0.00    +0.076 C 
BRANCH 135 136
ATOM    136  CG  HIS A   6      -9.659 -27.873   2.081  0.00  0.00    +0.082 A 
ATOM    137  CD2 HIS A   6     -10.366 -29.026   2.171  0.00  0.00    +0.115 A 
ATOM    138  NE2 HIS A   6     -11.678 -28.715   1.904  0.00  0.00    -0.221 NA
ATOM    139  CE1 HIS A   6     -11.772 -27.419   1.660  0.00  0.00    +0.199 A 
ATOM    140  ND1 HIS A   6     -10.566 -26.887   1.760  0.00  0.00    -0.227 NA
ENDBRANCH 135 136
ENDBRANCH  78 135
ENDBRANCH   1  78
TORSDOF 47
REMARK  Name = ../refined-set-2016/3r88/3r88_pocket.pdb
REMARK  111 active torsions:
REMARK  status: ('A' for Active; 'I' for Inactive)
REMARK    1  A    between atoms: _1  and  _3
REMARK    2  A    between atoms: _3  and  _4
REMARK    3  A    between atoms: _3  and  _6
REMARK    4  A    between atoms: _6  and  _7
REMARK    5  A    between atoms: _7  and  _8
REMARK    6  A    between atoms: _10  and  _12
REMARK    7  A    between atoms: _12  and  _13
REMARK    8  A    between atoms: _12  and  _15
REMARK    9  A    between atoms: _15  and  _16
REMARK   10  A    between atoms: _16  and  _17
REMARK   11  A    between atoms: _19  and  _21
REMARK   12  A    between atoms: _21  and  _22
REMARK   13  A    between atoms: _21  and  _24
REMARK   14  A    between atoms: _24  and  _25
REMARK   15  A    between atoms: _25  and  _26
REMARK   16  A    between atoms: _28  and  _30
REMARK   17  A    between atoms: _30  and  _31
REMARK   18  A    between atoms: _34  and  _36
REMARK   19  A    between atoms: _36  and  _37
REMARK   20  A    between atoms: _36  and  _39
REMARK   21  A    between atoms: _39  and  _40
REMARK   22  A    between atoms: _45  and  _47
REMARK   23  A    between atoms: _47  and  _48
REMARK   24  A    between atoms: _50  and  _52
REMARK   25  A    between atoms: _52  and  _53
REMARK   26  A    between atoms: _52  and  _55
REMARK   27  A    between atoms: _55  and  _56
REMARK   28  A    between atoms: _61  and  _63
REMARK   29  A    between atoms: _63  and  _64
REMARK   30  A    between atoms: _63  and  _66
REMARK   31  A    between atoms: _66  and  _67
REMARK   32  A    between atoms: _67  and  _68
REMARK   33  A    between atoms: _68  and  _69
REMARK   34  A    between atoms: _78  and  _80
REMARK   35  A    between atoms: _80  and  _81
REMARK   36  A    between atoms: _84  and  _86
REMARK   37  A    between atoms: _86  and  _87
REMARK   38  A    between atoms: _90  and  _92
REMARK   39  A    between atoms: _92  and  _93
REMARK   40  A    between atoms: _92  and  _95
REMARK   41  A    between atoms: _95  and  _96
REMARK   42  A    between atoms: _102  and  _104
REMARK   43  A    between atoms: _104  and  _105
REMARK   44  A    between atoms: _109  and  _110
REMARK   45  A    between atoms: _115  and  _117
REMARK   46  A    between atoms: _117  and  _118
REMARK   47  A    between atoms: _117  and  _120
REMARK   48  A    between atoms: _120  and  _121
REMARK   49  A    between atoms: _121  and  _122
REMARK   50  A    between atoms: _122  and  _123
REMARK   51  A    between atoms: _132  and  _134
REMARK   52  A    between atoms: _134  and  _135
REMARK   53  A    between atoms: _134  and  _137
REMARK   54  A    between atoms: _137  and  _138
REMARK   55  A    between atoms: _144  and  _146
REMARK   56  A    between atoms: _146  and  _147
REMARK   57  A    between atoms: _146  and  _149
REMARK   58  A    between atoms: _149  and  _150
REMARK   59  A    between atoms: _156  and  _157
REMARK   60  A    between atoms: _162  and  _164
REMARK   61  A    between atoms: _164  and  _165
REMARK   62  A    between atoms: _164  and  _167
REMARK   63  A    between atoms: _167  and  _168
REMARK   64  A    between atoms: _170  and  _172
REMARK   65  A    between atoms: _172  and  _173
REMARK   66  A    between atoms: _172  and  _175
REMARK   67  A    between atoms: _175  and  _176
REMARK   68  A    between atoms: _181  and  _182
REMARK   69  A    between atoms: _184  and  _186
REMARK   70  A    between atoms: _186  and  _187
REMARK   71  A    between atoms: _186  and  _189
REMARK   72  A    between atoms: _189  and  _190
REMARK   73  A    between atoms: _190  and  _191
REMARK   74  A    between atoms: _191  and  _192
REMARK   75  A    between atoms: _201  and  _203
REMARK   76  A    between atoms: _203  and  _204
REMARK   77  A    between atoms: _203  and  _206
REMARK   78  A    between atoms: _206  and  _207
REMARK   79  A    between atoms: _212  and  _214
REMARK   80  A    between atoms: _214  and  _215
REMARK   81  A    between atoms: _218  and  _220
REMARK   82  A    between atoms: _220  and  _221
REMARK   83  A    between atoms: _224  and  _226
REMARK   84  A    between atoms: _226  and  _227
REMARK   85  A    between atoms: _230  and  _232
REMARK   86  A    between atoms: _232  and  _233
REMARK   87  A    between atoms: _232  and  _235
REMARK   88  A    between atoms: _235  and  _236
REMARK   89  A    between atoms: _236  and  _237
REMARK   90  A    between atoms: _237  and  _238
REMARK   91  A    between atoms: _247  and  _249
REMARK   92  A    between atoms: _249  and  _250
REMARK   93  A    between atoms: _249  and  _252
REMARK   94  A    between atoms: _252  and  _253
REMARK   95  A    between atoms: _253  and  _254
REMARK   96  A    between atoms: _254  and  _255
REMARK   97  A    between atoms: _264  and  _266
REMARK   98  A    between atoms: _266  and  _267
REMARK   99  A    between atoms: _266  and  _269
REMARK  100  A    between atoms: _269  and  _270
REMARK  101  A    between atoms: _276  and  _278
REMARK  102  A    between atoms: _278  and  _279
REMARK  103  A    between atoms: _278  and  _281
REMARK  104  A    between atoms: _281  and  _282
REMARK  105  A    between atoms: _285  and  _287
REMARK  106  A    between atoms: _287  and  _288
REMARK  107  A    between atoms: _290  and  _292
REMARK  108  A    between atoms: _292  and  _293
REMARK  109  A    between atoms: _292  and  _295
REMARK  110  A    between atoms: _295  and  _296
REMARK  111  A    between atoms: _300  and  _301
REMARK                            x       y       z     vdW  Elec       q    Type
REMARK                         _______ _______ _______ _____ _____    ______ ____
ROOT
ATOM      1  C   ARG A   1      -3.298 -27.852  16.144  0.00  0.00    +0.238 C 
ATOM      2  O   ARG A   1      -3.564 -28.266  17.274  0.00  0.00    -0.274 OA
ATOM      3  N   ARG A   2      -2.285 -28.319  15.425  0.00  0.00    -0.298 N 
ATOM      4  H   ARG A   2      -2.119 -27.948  14.467  0.00  0.00    +0.150 HD
ENDROOT
BRANCH   1   5
ATOM      5  CA  ARG A   1      -4.134 -26.746  15.500  0.00  0.00    +0.145 C 
BRANCH   5   6
ATOM      6  N   ARG A   1      -3.291 -25.740  14.831  0.00  0.00    -0.238 NA
ATOM      7  H   ARG A   1      -3.445 -25.532  13.824  0.00  0.00    +0.142 HD
ENDBRANCH   5   6
BRANCH   5   8
ATOM      8  CB  ARG A   1      -5.120 -27.358  14.509  0.00  0.00    +0.030 C 
BRANCH   8   9
ATOM      9  CG  ARG A   1      -6.144 -26.356  14.011  0.00  0.00    +0.045 C 
BRANCH   9  10
ATOM     10  CD  ARG A   1      -7.128 -26.979  13.055  0.00  0.00    +0.174 C 
BRANCH  10  11
ATOM     11  NE  ARG A   1      -7.893 -28.061  13.679  0.00  0.00    -0.265 N 
ATOM     12  HE  ARG A   1      -8.002 -28.042  14.713  0.00  0.00    +0.259 HD
ATOM     13  CZ  ARG A   1      -8.459 -29.067  13.016  0.00  0.00    +0.342 C 
ATOM     14  NH2 ARG A   1      -9.141 -30.002  13.684  0.00  0.00    -0.292 N 
ATOM     15 HH21 ARG A   1      -9.228 -29.942  14.719  0.00  0.00    +0.255 HD
ATOM     16 HH22 ARG A   1      -9.585 -30.789  13.169  0.00  0.00    +0.255 HD
ATOM     17  NH1 ARG A   1      -8.361 -29.136  11.685  0.00  0.00    -0.292 N 
ATOM     18 HH11 ARG A   1      -8.805 -29.924  11.171  0.00  0.00    +0.255 HD
ATOM     19 HH12 ARG A   1      -7.841 -28.402  11.163  0.00  0.00    +0.255 HD
ENDBRANCH  10  11
ENDBRANCH   9  10
ENDBRANCH   8   9
ENDBRANCH   5   8
ENDBRANCH   1   5
BRANCH   3  20
ATOM     20  CA  ARG A   2      -1.399 -29.350  15.966  0.00  0.00    +0.137 C 
BRANCH  20  21
ATOM     21  C   ARG A   2      -0.606 -28.820  17.152  0.00  0.00    +0.227 C 
ATOM     22  O   ARG A   2      -0.422 -29.529  18.136  0.00  0.00    -0.286 OA
ENDBRANCH  20  21
BRANCH  20  23
ATOM     23  CB  ARG A   2      -0.439 -29.870  14.898  0.00  0.00    +0.031 C 
BRANCH  23  24
ATOM     24  CG  ARG A   2      -1.118 -30.686  13.809  0.00  0.00    +0.045 C 
BRANCH  24  25
ATOM     25  CD  ARG A   2      -0.095 -31.324  12.873  0.00  0.00    +0.174 C 
BRANCH  25  26
ATOM     26  NE  ARG A   2       0.611 -30.348  12.035  0.00  0.00    -0.265 N 
ATOM     27  HE  ARG A   2       1.463 -29.899  12.429  0.00  0.00    +0.259 HD
ATOM     28  CZ  ARG A   2       0.238 -29.995  10.803  0.00  0.00    +0.342 C 
ATOM     29  NH2 ARG A   2      -0.850 -30.528  10.242  0.00  0.00    -0.292 N 
ATOM     30 HH21 ARG A   2      -1.416 -31.226  10.766  0.00  0.00    +0.255 HD
ATOM     31 HH22 ARG A   2      -1.131 -30.246   9.281  0.00  0.00    +0.255 HD
ATOM     32  NH1 ARG A   2       0.961 -29.105  10.127  0.00  0.00    -0.292 N 
ATOM     33 HH11 ARG A   2       1.811 -28.689  10.559  0.00  0.00    +0.255 HD
ATOM     34 HH12 ARG A   2       0.676 -28.825   9.167  0.00  0.00    +0.255 HD
ENDBRANCH  25  26
ENDBRANCH  24  25
ENDBRANCH  23  24
ENDBRANCH  20  23
ENDBRANCH   3  20
TORSDOF 12
REMARK  Name = ../refined-set-2016/3r88/3r88_pocket.pdb
REMARK  111 active torsions:
REMARK  status: ('A' for Active; 'I' for Inactive)
REMARK    1  A    between atoms: _1  and  _3
REMARK    2  A    between atoms: _3  and  _4
REMARK    3  A    between atoms: _3  and  _6
REMARK    4  A    between atoms: _6  and  _7
REMARK    5  A    between atoms: _7  and  _8
REMARK    6  A    between atoms: _10  and  _12
REMARK    7  A    between atoms: _12  and  _13
REMARK    8  A    between atoms: _12  and  _15
REMARK    9  A    between atoms: _15  and  _16
REMARK   10  A    between atoms: _16  and  _17
REMARK   11  A    between atoms: _19  and  _21
REMARK   12  A    between atoms: _21  and  _22
REMARK   13  A    between atoms: _21  and  _24
REMARK   14  A    between atoms: _24  and  _25
REMARK   15  A    between atoms: _25  and  _26
REMARK   16  A    between atoms: _28  and  _30
REMARK   17  A    between atoms: _30  and  _31
REMARK   18  A    between atoms: _34  and  _36
REMARK   19  A    between atoms: _36  and  _37
REMARK   20  A    between atoms: _36  and  _39
REMARK   21  A    between atoms: _39  and  _40
REMARK   22  A    between atoms: _45  and  _47
REMARK   23  A    between atoms: _47  and  _48
REMARK   24  A    between atoms: _50  and  _52
REMARK   25  A    between atoms: _52  and  _53
REMARK   26  A    between atoms: _52  and  _55
REMARK   27  A    between atoms: _55  and  _56
REMARK   28  A    between atoms: _61  and  _63
REMARK   29  A    between atoms: _63  and  _64
REMARK   30  A    between atoms: _63  and  _66
REMARK   31  A    between atoms: _66  and  _67
REMARK   32  A    between atoms: _67  and  _68
REMARK   33  A    between atoms: _68  and  _69
REMARK   34  A    between atoms: _78  and  _80
REMARK   35  A    between atoms: _80  and  _81
REMARK   36  A    between atoms: _84  and  _86
REMARK   37  A    between atoms: _86  and  _87
REMARK   38  A    between atoms: _90  and  _92
REMARK   39  A    between atoms: _92  and  _93
REMARK   40  A    between atoms: _92  and  _95
REMARK   41  A    between atoms: _95  and  _96
REMARK   42  A    between atoms: _102  and  _104
REMARK   43  A    between atoms: _104  and  _105
REMARK   44  A    between atoms: _109  and  _110
REMARK   45  A    between atoms: _115  and  _117
REMARK   46  A    between atoms: _117  and  _118
REMARK   47  A    between atoms: _117  and  _120
REMARK   48  A    between atoms: _120  and  _121
REMARK   49  A    between atoms: _121  and  _122
REMARK   50  A    between atoms: _122  and  _123
REMARK   51  A    between atoms: _132  and  _134
REMARK   52  A    between atoms: _134  and  _135
REMARK   53  A    between atoms: _134  and  _137
REMARK   54  A    between atoms: _137  and  _138
REMARK   55  A    between atoms: _144  and  _146
REMARK   56  A    between atoms: _146  and  _147
REMARK   57  A    between atoms: _146  and  _149
REMARK   58  A    between atoms: _149  and  _150
REMARK   59  A    between atoms: _156  and  _157
REMARK   60  A    between atoms: _162  and  _164
REMARK   61  A    between atoms: _164  and  _165
REMARK   62  A    between atoms: _164  and  _167
REMARK   63  A    between atoms: _167  and  _168
REMARK   64  A    between atoms: _170  and  _172
REMARK   65  A    between atoms: _172  and  _173
REMARK   66  A    between atoms: _172  and  _175
REMARK   67  A    between atoms: _175  and  _176
REMARK   68  A    between atoms: _181  and  _182
REMARK   69  A    between atoms: _184  and  _186
REMARK   70  A    between atoms: _186  and  _187
REMARK   71  A    between atoms: _186  and  _189
REMARK   72  A    between atoms: _189  and  _190
REMARK   73  A    between atoms: _190  and  _191
REMARK   74  A    between atoms: _191  and  _192
REMARK   75  A    between atoms: _201  and  _203
REMARK   76  A    between atoms: _203  and  _204
REMARK   77  A    between atoms: _203  and  _206
REMARK   78  A    between atoms: _206  and  _207
REMARK   79  A    between atoms: _212  and  _214
REMARK   80  A    between atoms: _214  and  _215
REMARK   81  A    between atoms: _218  and  _220
REMARK   82  A    between atoms: _220  and  _221
REMARK   83  A    between atoms: _224  and  _226
REMARK   84  A    between atoms: _226  and  _227
REMARK   85  A    between atoms: _230  and  _232
REMARK   86  A    between atoms: _232  and  _233
REMARK   87  A    between atoms: _232  and  _235
REMARK   88  A    between atoms: _235  and  _236
REMARK   89  A    between atoms: _236  and  _237
REMARK   90  A    between atoms: _237  and  _238
REMARK   91  A    between atoms: _247  and  _249
REMARK   92  A    between atoms: _249  and  _250
REMARK   93  A    between atoms: _249  and  _252
REMARK   94  A    between atoms: _252  and  _253
REMARK   95  A    between atoms: _253  and  _254
REMARK   96  A    between atoms: _254  and  _255
REMARK   97  A    between atoms: _264  and  _266
REMARK   98  A    between atoms: _266  and  _267
REMARK   99  A    between atoms: _266  and  _269
REMARK  100  A    between atoms: _269  and  _270
REMARK  101  A    between atoms: _276  and  _278
REMARK  102  A    between atoms: _278  and  _279
REMARK  103  A    between atoms: _278  and  _281
REMARK  104  A    between atoms: _281  and  _282
REMARK  105  A    between atoms: _285  and  _287
REMARK  106  A    between atoms: _287  and  _288
REMARK  107  A    between atoms: _290  and  _292
REMARK  108  A    between atoms: _292  and  _293
REMARK  109  A    between atoms: _292  and  _295
REMARK  110  A    between atoms: _295  and  _296
REMARK  111  A    between atoms: _300  and  _301
REMARK                            x       y       z     vdW  Elec       q    Type
REMARK                         _______ _______ _______ _____ _____    ______ ____
ROOT
ATOM      1  CB  PHE A   1     -10.247 -25.242  13.487  0.00  0.00    +0.051 C 
ENDROOT
BRANCH   1   2
ATOM      2  CG  PHE A   1      -9.992 -23.801  13.084  0.00  0.00    -0.020 A 
ATOM      3  CD2 PHE A   1     -10.228 -22.754  13.965  0.00  0.00    -0.004 A 
ATOM      4  CE2 PHE A   1      -9.995 -21.409  13.580  0.00  0.00    -0.000 A 
ATOM      5  CZ  PHE A   1      -9.518 -21.141  12.319  0.00  0.00    -0.000 A 
ATOM      6  CE1 PHE A   1      -9.287 -22.182  11.427  0.00  0.00    -0.000 A 
ATOM      7  CD1 PHE A   1      -9.532 -23.505  11.807  0.00  0.00    -0.004 A 
ENDBRANCH   1   2
BRANCH   1   8
ATOM      8  CA  PHE A   1     -11.726 -25.585  13.604  0.00  0.00    +0.137 C 
BRANCH   8   9
ATOM      9  N   PHE A   1     -12.295 -25.051  14.844  0.00  0.00    -0.239 NA
ATOM     10  H   PHE A   1     -11.663 -24.668  15.576  0.00  0.00    +0.142 HD
ENDBRANCH   8   9
BRANCH   8  11
ATOM     11  C   PHE A   1     -11.980 -27.086  13.443  0.00  0.00    +0.224 C 
ATOM     12  O   PHE A   1     -12.041 -27.592  12.310  0.00  0.00    -0.287 OA
ENDBRANCH   8  11
ENDBRANCH   1   8
TORSDOF 4
REMARK  Name = ../refined-set-2016/3r88/3r88_pocket.pdb
REMARK  111 active torsions:
REMARK  status: ('A' for Active; 'I' for Inactive)
REMARK    1  A    between atoms: _1  and  _3
REMARK    2  A    between atoms: _3  and  _4
REMARK    3  A    between atoms: _3  and  _6
REMARK    4  A    between atoms: _6  and  _7
REMARK    5  A    between atoms: _7  and  _8
REMARK    6  A    between atoms: _10  and  _12
REMARK    7  A    between atoms: _12  and  _13
REMARK    8  A    between atoms: _12  and  _15
REMARK    9  A    between atoms: _15  and  _16
REMARK   10  A    between atoms: _16  and  _17
REMARK   11  A    between atoms: _19  and  _21
REMARK   12  A    between atoms: _21  and  _22
REMARK   13  A    between atoms: _21  and  _24
REMARK   14  A    between atoms: _24  and  _25
REMARK   15  A    between atoms: _25  and  _26
REMARK   16  A    between atoms: _28  and  _30
REMARK   17  A    between atoms: _30  and  _31
REMARK   18  A    between atoms: _34  and  _36
REMARK   19  A    between atoms: _36  and  _37
REMARK   20  A    between atoms: _36  and  _39
REMARK   21  A    between atoms: _39  and  _40
REMARK   22  A    between atoms: _45  and  _47
REMARK   23  A    between atoms: _47  and  _48
REMARK   24  A    between atoms: _50  and  _52
REMARK   25  A    between atoms: _52  and  _53
REMARK   26  A    between atoms: _52  and  _55
REMARK   27  A    between atoms: _55  and  _56
REMARK   28  A    between atoms: _61  and  _63
REMARK   29  A    between atoms: _63  and  _64
REMARK   30  A    between atoms: _63  and  _66
REMARK   31  A    between atoms: _66  and  _67
REMARK   32  A    between atoms: _67  and  _68
REMARK   33  A    between atoms: _68  and  _69
REMARK   34  A    between atoms: _78  and  _80
REMARK   35  A    between atoms: _80  and  _81
REMARK   36  A    between atoms: _84  and  _86
REMARK   37  A    between atoms: _86  and  _87
REMARK   38  A    between atoms: _90  and  _92
REMARK   39  A    between atoms: _92  and  _93
REMARK   40  A    between atoms: _92  and  _95
REMARK   41  A    between atoms: _95  and  _96
REMARK   42  A    between atoms: _102  and  _104
REMARK   43  A    between atoms: _104  and  _105
REMARK   44  A    between atoms: _109  and  _110
REMARK   45  A    between atoms: _115  and  _117
REMARK   46  A    between atoms: _117  and  _118
REMARK   47  A    between atoms: _117  and  _120
REMARK   48  A    between atoms: _120  and  _121
REMARK   49  A    between atoms: _121  and  _122
REMARK   50  A    between atoms: _122  and  _123
REMARK   51  A    between atoms: _132  and  _134
REMARK   52  A    between atoms: _134  and  _135
REMARK   53  A    between atoms: _134  and  _137
REMARK   54  A    between atoms: _137  and  _138
REMARK   55  A    between atoms: _144  and  _146
REMARK   56  A    between atoms: _146  and  _147
REMARK   57  A    between atoms: _146  and  _149
REMARK   58  A    between atoms: _149  and  _150
REMARK   59  A    between atoms: _156  and  _157
REMARK   60  A    between atoms: _162  and  _164
REMARK   61  A    between atoms: _164  and  _165
REMARK   62  A    between atoms: _164  and  _167
REMARK   63  A    between atoms: _167  and  _168
REMARK   64  A    between atoms: _170  and  _172
REMARK   65  A    between atoms: _172  and  _173
REMARK   66  A    between atoms: _172  and  _175
REMARK   67  A    between atoms: _175  and  _176
REMARK   68  A    between atoms: _181  and  _182
REMARK   69  A    between atoms: _184  and  _186
REMARK   70  A    between atoms: _186  and  _187
REMARK   71  A    between atoms: _186  and  _189
REMARK   72  A    between atoms: _189  and  _190
REMARK   73  A    between atoms: _190  and  _191
REMARK   74  A    between atoms: _191  and  _192
REMARK   75  A    between atoms: _201  and  _203
REMARK   76  A    between atoms: _203  and  _204
REMARK   77  A    between atoms: _203  and  _206
REMARK   78  A    between atoms: _206  and  _207
REMARK   79  A    between atoms: _212  and  _214
REMARK   80  A    between atoms: _214  and  _215
REMARK   81  A    between atoms: _218  and  _220
REMARK   82  A    between atoms: _220  and  _221
REMARK   83  A    between atoms: _224  and  _226
REMARK   84  A    between atoms: _226  and  _227
REMARK   85  A    between atoms: _230  and  _232
REMARK   86  A    between atoms: _232  and  _233
REMARK   87  A    between atoms: _232  and  _235
REMARK   88  A    between atoms: _235  and  _236
REMARK   89  A    between atoms: _236  and  _237
REMARK   90  A    between atoms: _237  and  _238
REMARK   91  A    between atoms: _247  and  _249
REMARK   92  A    between atoms: _249  and  _250
REMARK   93  A    between atoms: _249  and  _252
REMARK   94  A    between atoms: _252  and  _253
REMARK   95  A    between atoms: _253  and  _254
REMARK   96  A    between atoms: _254  and  _255
REMARK   97  A    between atoms: _264  and  _266
REMARK   98  A    between atoms: _266  and  _267
REMARK   99  A    between atoms: _266  and  _269
REMARK  100  A    between atoms: _269  and  _270
REMARK  101  A    between atoms: _276  and  _278
REMARK  102  A    between atoms: _278  and  _279
REMARK  103  A    between atoms: _278  and  _281
REMARK  104  A    between atoms: _281  and  _282
REMARK  105  A    between atoms: _285  and  _287
REMARK  106  A    between atoms: _287  and  _288
REMARK  107  A    between atoms: _290  and  _292
REMARK  108  A    between atoms: _292  and  _293
REMARK  109  A    between atoms: _292  and  _295
REMARK  110  A    between atoms: _295  and  _296
REMARK  111  A    between atoms: _300  and  _301
REMARK                            x       y       z     vdW  Elec       q    Type
REMARK                         _______ _______ _______ _____ _____    ______ ____
ROOT
ATOM      1  CA  LEU A   1     -14.882 -27.581   9.710  0.00  0.00    +0.145 C 
ENDROOT
BRANCH   1   2
ATOM      2  C   LEU A   1     -14.773 -28.710   8.664  0.00  0.00    +0.238 C 
ATOM      3  N   GLY A   2     -14.119 -29.814   9.019  0.00  0.00    -0.297 N 
ATOM      4  H   GLY A   2     -13.710 -29.875   9.973  0.00  0.00    +0.150 HD
ATOM      5  O   LEU A   1     -15.308 -28.579   7.568  0.00  0.00    -0.274 OA
BRANCH   3   6
ATOM      6  CA  GLY A   2     -13.958 -30.957   8.091  0.00  0.00    +0.163 C 
BRANCH   6   7
ATOM      7  C   GLY A   2     -15.241 -31.394   7.410  0.00  0.00    +0.229 C 
ATOM      8  O   GLY A   2     -15.316 -31.437   6.170  0.00  0.00    -0.286 OA
ENDBRANCH   6   7
ENDBRANCH   3   6
ENDBRANCH   1   2
BRANCH   1   9
ATOM      9  N   LEU A   1     -14.876 -28.017  11.117  0.00  0.00    -0.238 NA
ATOM     10  H   LEU A   1     -14.008 -27.936  11.684  0.00  0.00    +0.142 HD
ENDBRANCH   1   9
BRANCH   1  11
ATOM     11  CB  LEU A   1     -13.820 -26.502   9.477  0.00  0.00    +0.026 C 
BRANCH  11  12
ATOM     12  CG  LEU A   1     -14.088 -25.235  10.307  0.00  0.00    +0.002 C 
ATOM     13  CD2 LEU A   1     -12.979 -24.209  10.143  0.00  0.00    +0.000 C 
ATOM     14  CD1 LEU A   1     -15.462 -24.620   9.994  0.00  0.00    +0.000 C 
ENDBRANCH  11  12
ENDBRANCH   1  11
TORSDOF 6
REMARK  Name = ../refined-set-2016/3r88/3r88_pocket.pdb
REMARK  111 active torsions:
REMARK  status: ('A' for Active; 'I' for Inactive)
REMARK    1  A    between atoms: _1  and  _3
REMARK    2  A    between atoms: _3  and  _4
REMARK    3  A    between atoms: _3  and  _6
REMARK    4  A    between atoms: _6  and  _7
REMARK    5  A    between atoms: _7  and  _8
REMARK    6  A    between atoms: _10  and  _12
REMARK    7  A    between atoms: _12  and  _13
REMARK    8  A    between atoms: _12  and  _15
REMARK    9  A    between atoms: _15  and  _16
REMARK   10  A    between atoms: _16  and  _17
REMARK   11  A    between atoms: _19  and  _21
REMARK   12  A    between atoms: _21  and  _22
REMARK   13  A    between atoms: _21  and  _24
REMARK   14  A    between atoms: _24  and  _25
REMARK   15  A    between atoms: _25  and  _26
REMARK   16  A    between atoms: _28  and  _30
REMARK   17  A    between atoms: _30  and  _31
REMARK   18  A    between atoms: _34  and  _36
REMARK   19  A    between atoms: _36  and  _37
REMARK   20  A    between atoms: _36  and  _39
REMARK   21  A    between atoms: _39  and  _40
REMARK   22  A    between atoms: _45  and  _47
REMARK   23  A    between atoms: _47  and  _48
REMARK   24  A    between atoms: _50  and  _52
REMARK   25  A    between atoms: _52  and  _53
REMARK   26  A    between atoms: _52  and  _55
REMARK   27  A    between atoms: _55  and  _56
REMARK   28  A    between atoms: _61  and  _63
REMARK   29  A    between atoms: _63  and  _64
REMARK   30  A    between atoms: _63  and  _66
REMARK   31  A    between atoms: _66  and  _67
REMARK   32  A    between atoms: _67  and  _68
REMARK   33  A    between atoms: _68  and  _69
REMARK   34  A    between atoms: _78  and  _80
REMARK   35  A    between atoms: _80  and  _81
REMARK   36  A    between atoms: _84  and  _86
REMARK   37  A    between atoms: _86  and  _87
REMARK   38  A    between atoms: _90  and  _92
REMARK   39  A    between atoms: _92  and  _93
REMARK   40  A    between atoms: _92  and  _95
REMARK   41  A    between atoms: _95  and  _96
REMARK   42  A    between atoms: _102  and  _104
REMARK   43  A    between atoms: _104  and  _105
REMARK   44  A    between atoms: _109  and  _110
REMARK   45  A    between atoms: _115  and  _117
REMARK   46  A    between atoms: _117  and  _118
REMARK   47  A    between atoms: _117  and  _120
REMARK   48  A    between atoms: _120  and  _121
REMARK   49  A    between atoms: _121  and  _122
REMARK   50  A    between atoms: _122  and  _123
REMARK   51  A    between atoms: _132  and  _134
REMARK   52  A    between atoms: _134  and  _135
REMARK   53  A    between atoms: _134  and  _137
REMARK   54  A    between atoms: _137  and  _138
REMARK   55  A    between atoms: _144  and  _146
REMARK   56  A    between atoms: _146  and  _147
REMARK   57  A    between atoms: _146  and  _149
REMARK   58  A    between atoms: _149  and  _150
REMARK   59  A    between atoms: _156  and  _157
REMARK   60  A    between atoms: _162  and  _164
REMARK   61  A    between atoms: _164  and  _165
REMARK   62  A    between atoms: _164  and  _167
REMARK   63  A    between atoms: _167  and  _168
REMARK   64  A    between atoms: _170  and  _172
REMARK   65  A    between atoms: _172  and  _173
REMARK   66  A    between atoms: _172  and  _175
REMARK   67  A    between atoms: _175  and  _176
REMARK   68  A    between atoms: _181  and  _182
REMARK   69  A    between atoms: _184  and  _186
REMARK   70  A    between atoms: _186  and  _187
REMARK   71  A    between atoms: _186  and  _189
REMARK   72  A    between atoms: _189  and  _190
REMARK   73  A    between atoms: _190  and  _191
REMARK   74  A    between atoms: _191  and  _192
REMARK   75  A    between atoms: _201  and  _203
REMARK   76  A    between atoms: _203  and  _204
REMARK   77  A    between atoms: _203  and  _206
REMARK   78  A    between atoms: _206  and  _207
REMARK   79  A    between atoms: _212  and  _214
REMARK   80  A    between atoms: _214  and  _215
REMARK   81  A    between atoms: _218  and  _220
REMARK   82  A    between atoms: _220  and  _221
REMARK   83  A    between atoms: _224  and  _226
REMARK   84  A    between atoms: _226  and  _227
REMARK   85  A    between atoms: _230  and  _232
REMARK   86  A    between atoms: _232  and  _233
REMARK   87  A    between atoms: _232  and  _235
REMARK   88  A    between atoms: _235  and  _236
REMARK   89  A    between atoms: _236  and  _237
REMARK   90  A    between atoms: _237  and  _238
REMARK   91  A    between atoms: _247  and  _249
REMARK   92  A    between atoms: _249  and  _250
REMARK   93  A    between atoms: _249  and  _252
REMARK   94  A    between atoms: _252  and  _253
REMARK   95  A    between atoms: _253  and  _254
REMARK   96  A    between atoms: _254  and  _255
REMARK   97  A    between atoms: _264  and  _266
REMARK   98  A    between atoms: _266  and  _267
REMARK   99  A    between atoms: _266  and  _269
REMARK  100  A    between atoms: _269  and  _270
REMARK  101  A    between atoms: _276  and  _278
REMARK  102  A    between atoms: _278  and  _279
REMARK  103  A    between atoms: _278  and  _281
REMARK  104  A    between atoms: _281  and  _282
REMARK  105  A    between atoms: _285  and  _287
REMARK  106  A    between atoms: _287  and  _288
REMARK  107  A    between atoms: _290  and  _292
REMARK  108  A    between atoms: _292  and  _293
REMARK  109  A    between atoms: _292  and  _295
REMARK  110  A    between atoms: _295  and  _296
REMARK  111  A    between atoms: _300  and  _301
REMARK                            x       y       z     vdW  Elec       q    Type
REMARK                         _______ _______ _______ _____ _____    ______ ____
ROOT
ATOM      1  CA  THR A   1     -15.941 -28.249   3.805  0.00  0.00    +0.160 C 
ENDROOT
BRANCH   1   2
ATOM      2  N   THR A   1     -16.761 -28.804   4.897  0.00  0.00    -0.237 NA
ATOM      3  H   THR A   1     -16.458 -29.673   5.382  0.00  0.00    +0.142 HD
ENDBRANCH   1   2
BRANCH   1   4
ATOM      4  CB  THR A   1     -14.657 -27.562   4.357  0.00  0.00    +0.134 C 
ATOM      5  CG2 THR A   1     -15.011 -26.319   5.179  0.00  0.00    +0.034 C 
BRANCH   4   6
ATOM      6  OG1 THR A   1     -13.925 -28.496   5.166  0.00  0.00    -0.383 OA
ATOM      7  HG1 THR A   1     -14.492 -28.792   5.921  0.00  0.00    +0.210 HD
ENDBRANCH   4   6
ENDBRANCH   1   4
BRANCH   1   8
ATOM      8  C   THR A   1     -15.553 -29.283   2.749  0.00  0.00    +0.227 C 
ATOM      9  O   THR A   1     -14.478 -29.191   2.141  0.00  0.00    -0.287 OA
ENDBRANCH   1   8
TORSDOF 4
REMARK  Name = ../refined-set-2016/3r88/3r88_pocket.pdb
REMARK  111 active torsions:
REMARK  status: ('A' for Active; 'I' for Inactive)
REMARK    1  A    between atoms: _1  and  _3
REMARK    2  A    between atoms: _3  and  _4
REMARK    3  A    between atoms: _3  and  _6
REMARK    4  A    between atoms: _6  and  _7
REMARK    5  A    between atoms: _7  and  _8
REMARK    6  A    between atoms: _10  and  _12
REMARK    7  A    between atoms: _12  and  _13
REMARK    8  A    between atoms: _12  and  _15
REMARK    9  A    between atoms: _15  and  _16
REMARK   10  A    between atoms: _16  and  _17
REMARK   11  A    between atoms: _19  and  _21
REMARK   12  A    between atoms: _21  and  _22
REMARK   13  A    between atoms: _21  and  _24
REMARK   14  A    between atoms: _24  and  _25
REMARK   15  A    between atoms: _25  and  _26
REMARK   16  A    between atoms: _28  and  _30
REMARK   17  A    between atoms: _30  and  _31
REMARK   18  A    between atoms: _34  and  _36
REMARK   19  A    between atoms: _36  and  _37
REMARK   20  A    between atoms: _36  and  _39
REMARK   21  A    between atoms: _39  and  _40
REMARK   22  A    between atoms: _45  and  _47
REMARK   23  A    between atoms: _47  and  _48
REMARK   24  A    between atoms: _50  and  _52
REMARK   25  A    between atoms: _52  and  _53
REMARK   26  A    between atoms: _52  and  _55
REMARK   27  A    between atoms: _55  and  _56
REMARK   28  A    between atoms: _61  and  _63
REMARK   29  A    between atoms: _63  and  _64
REMARK   30  A    between atoms: _63  and  _66
REMARK   31  A    between atoms: _66  and  _67
REMARK   32  A    between atoms: _67  and  _68
REMARK   33  A    between atoms: _68  and  _69
REMARK   34  A    between atoms: _78  and  _80
REMARK   35  A    between atoms: _80  and  _81
REMARK   36  A    between atoms: _84  and  _86
REMARK   37  A    between atoms: _86  and  _87
REMARK   38  A    between atoms: _90  and  _92
REMARK   39  A    between atoms: _92  and  _93
REMARK   40  A    between atoms: _92  and  _95
REMARK   41  A    between atoms: _95  and  _96
REMARK   42  A    between atoms: _102  and  _104
REMARK   43  A    between atoms: _104  and  _105
REMARK   44  A    between atoms: _109  and  _110
REMARK   45  A    between atoms: _115  and  _117
REMARK   46  A    between atoms: _117  and  _118
REMARK   47  A    between atoms: _117  and  _120
REMARK   48  A    between atoms: _120  and  _121
REMARK   49  A    between atoms: _121  and  _122
REMARK   50  A    between atoms: _122  and  _123
REMARK   51  A    between atoms: _132  and  _134
REMARK   52  A    between atoms: _134  and  _135
REMARK   53  A    between atoms: _134  and  _137
REMARK   54  A    between atoms: _137  and  _138
REMARK   55  A    between atoms: _144  and  _146
REMARK   56  A    between atoms: _146  and  _147
REMARK   57  A    between atoms: _146  and  _149
REMARK   58  A    between atoms: _149  and  _150
REMARK   59  A    between atoms: _156  and  _157
REMARK   60  A    between atoms: _162  and  _164
REMARK   61  A    between atoms: _164  and  _165
REMARK   62  A    between atoms: _164  and  _167
REMARK   63  A    between atoms: _167  and  _168
REMARK   64  A    between atoms: _170  and  _172
REMARK   65  A    between atoms: _172  and  _173
REMARK   66  A    between atoms: _172  and  _175
REMARK   67  A    between atoms: _175  and  _176
REMARK   68  A    between atoms: _181  and  _182
REMARK   69  A    between atoms: _184  and  _186
REMARK   70  A    between atoms: _186  and  _187
REMARK   71  A    between atoms: _186  and  _189
REMARK   72  A    between atoms: _189  and  _190
REMARK   73  A    between atoms: _190  and  _191
REMARK   74  A    between atoms: _191  and  _192
REMARK   75  A    between atoms: _201  and  _203
REMARK   76  A    between atoms: _203  and  _204
REMARK   77  A    between atoms: _203  and  _206
REMARK   78  A    between atoms: _206  and  _207
REMARK   79  A    between atoms: _212  and  _214
REMARK   80  A    between atoms: _214  and  _215
REMARK   81  A    between atoms: _218  and  _220
REMARK   82  A    between atoms: _220  and  _221
REMARK   83  A    between atoms: _224  and  _226
REMARK   84  A    between atoms: _226  and  _227
REMARK   85  A    between atoms: _230  and  _232
REMARK   86  A    between atoms: _232  and  _233
REMARK   87  A    between atoms: _232  and  _235
REMARK   88  A    between atoms: _235  and  _236
REMARK   89  A    between atoms: _236  and  _237
REMARK   90  A    between atoms: _237  and  _238
REMARK   91  A    between atoms: _247  and  _249
REMARK   92  A    between atoms: _249  and  _250
REMARK   93  A    between atoms: _249  and  _252
REMARK   94  A    between atoms: _252  and  _253
REMARK   95  A    between atoms: _253  and  _254
REMARK   96  A    between atoms: _254  and  _255
REMARK   97  A    between atoms: _264  and  _266
REMARK   98  A    between atoms: _266  and  _267
REMARK   99  A    between atoms: _266  and  _269
REMARK  100  A    between atoms: _269  and  _270
REMARK  101  A    between atoms: _276  and  _278
REMARK  102  A    between atoms: _278  and  _279
REMARK  103  A    between atoms: _278  and  _281
REMARK  104  A    between atoms: _281  and  _282
REMARK  105  A    between atoms: _285  and  _287
REMARK  106  A    between atoms: _287  and  _288
REMARK  107  A    between atoms: _290  and  _292
REMARK  108  A    between atoms: _292  and  _293
REMARK  109  A    between atoms: _292  and  _295
REMARK  110  A    between atoms: _295  and  _296
REMARK  111  A    between atoms: _300  and  _301
REMARK                            x       y       z     vdW  Elec       q    Type
REMARK                         _______ _______ _______ _____ _____    ______ ____
ROOT
ATOM      1  N   PRO A   1     -15.044 -30.446  -0.628  0.00  0.00    -0.212 NA
ATOM      2  CD  PRO A   1     -13.830 -31.240  -0.345  0.00  0.00    +0.089 C 
ATOM      3  CG  PRO A   1     -13.094 -31.194  -1.687  0.00  0.00    +0.021 C 
ATOM      4  CB  PRO A   1     -13.414 -29.871  -2.254  0.00  0.00    +0.027 C 
ATOM      5  CA  PRO A   1     -14.880 -29.618  -1.839  0.00  0.00    +0.137 C 
ENDROOT
BRANCH   5   6
ATOM      6  C   PRO A   1     -15.861 -29.970  -2.976  0.00  0.00    +0.224 C 
ATOM      7  O   PRO A   1     -16.128 -29.123  -3.842  0.00  0.00    -0.287 OA
ENDBRANCH   5   6
TORSDOF 1
REMARK  Name = ../refined-set-2016/3r88/3r88_pocket.pdb
REMARK  111 active torsions:
REMARK  status: ('A' for Active; 'I' for Inactive)
REMARK    1  A    between atoms: _1  and  _3
REMARK    2  A    between atoms: _3  and  _4
REMARK    3  A    between atoms: _3  and  _6
REMARK    4  A    between atoms: _6  and  _7
REMARK    5  A    between atoms: _7  and  _8
REMARK    6  A    between atoms: _10  and  _12
REMARK    7  A    between atoms: _12  and  _13
REMARK    8  A    between atoms: _12  and  _15
REMARK    9  A    between atoms: _15  and  _16
REMARK   10  A    between atoms: _16  and  _17
REMARK   11  A    between atoms: _19  and  _21
REMARK   12  A    between atoms: _21  and  _22
REMARK   13  A    between atoms: _21  and  _24
REMARK   14  A    between atoms: _24  and  _25
REMARK   15  A    between atoms: _25  and  _26
REMARK   16  A    between atoms: _28  and  _30
REMARK   17  A    between atoms: _30  and  _31
REMARK   18  A    between atoms: _34  and  _36
REMARK   19  A    between atoms: _36  and  _37
REMARK   20  A    between atoms: _36  and  _39
REMARK   21  A    between atoms: _39  and  _40
REMARK   22  A    between atoms: _45  and  _47
REMARK   23  A    between atoms: _47  and  _48
REMARK   24  A    between atoms: _50  and  _52
REMARK   25  A    between atoms: _52  and  _53
REMARK   26  A    between atoms: _52  and  _55
REMARK   27  A    between atoms: _55  and  _56
REMARK   28  A    between atoms: _61  and  _63
REMARK   29  A    between atoms: _63  and  _64
REMARK   30  A    between atoms: _63  and  _66
REMARK   31  A    between atoms: _66  and  _67
REMARK   32  A    between atoms: _67  and  _68
REMARK   33  A    between atoms: _68  and  _69
REMARK   34  A    between atoms: _78  and  _80
REMARK   35  A    between atoms: _80  and  _81
REMARK   36  A    between atoms: _84  and  _86
REMARK   37  A    between atoms: _86  and  _87
REMARK   38  A    between atoms: _90  and  _92
REMARK   39  A    between atoms: _92  and  _93
REMARK   40  A    between atoms: _92  and  _95
REMARK   41  A    between atoms: _95  and  _96
REMARK   42  A    between atoms: _102  and  _104
REMARK   43  A    between atoms: _104  and  _105
REMARK   44  A    between atoms: _109  and  _110
REMARK   45  A    between atoms: _115  and  _117
REMARK   46  A    between atoms: _117  and  _118
REMARK   47  A    between atoms: _117  and  _120
REMARK   48  A    between atoms: _120  and  _121
REMARK   49  A    between atoms: _121  and  _122
REMARK   50  A    between atoms: _122  and  _123
REMARK   51  A    between atoms: _132  and  _134
REMARK   52  A    between atoms: _134  and  _135
REMARK   53  A    between atoms: _134  and  _137
REMARK   54  A    between atoms: _137  and  _138
REMARK   55  A    between atoms: _144  and  _146
REMARK   56  A    between atoms: _146  and  _147
REMARK   57  A    between atoms: _146  and  _149
REMARK   58  A    between atoms: _149  and  _150
REMARK   59  A    between atoms: _156  and  _157
REMARK   60  A    between atoms: _162  and  _164
REMARK   61  A    between atoms: _164  and  _165
REMARK   62  A    between atoms: _164  and  _167
REMARK   63  A    between atoms: _167  and  _168
REMARK   64  A    between atoms: _170  and  _172
REMARK   65  A    between atoms: _172  and  _173
REMARK   66  A    between atoms: _172  and  _175
REMARK   67  A    between atoms: _175  and  _176
REMARK   68  A    between atoms: _181  and  _182
REMARK   69  A    between atoms: _184  and  _186
REMARK   70  A    between atoms: _186  and  _187
REMARK   71  A    between atoms: _186  and  _189
REMARK   72  A    between atoms: _189  and  _190
REMARK   73  A    between atoms: _190  and  _191
REMARK   74  A    between atoms: _191  and  _192
REMARK   75  A    between atoms: _201  and  _203
REMARK   76  A    between atoms: _203  and  _204
REMARK   77  A    between atoms: _203  and  _206
REMARK   78  A    between atoms: _206  and  _207
REMARK   79  A    between atoms: _212  and  _214
REMARK   80  A    between atoms: _214  and  _215
REMARK   81  A    between atoms: _218  and  _220
REMARK   82  A    between atoms: _220  and  _221
REMARK   83  A    between atoms: _224  and  _226
REMARK   84  A    between atoms: _226  and  _227
REMARK   85  A    between atoms: _230  and  _232
REMARK   86  A    between atoms: _232  and  _233
REMARK   87  A    between atoms: _232  and  _235
REMARK   88  A    between atoms: _235  and  _236
REMARK   89  A    between atoms: _236  and  _237
REMARK   90  A    between atoms: _237  and  _238
REMARK   91  A    between atoms: _247  and  _249
REMARK   92  A    between atoms: _249  and  _250
REMARK   93  A    between atoms: _249  and  _252
REMARK   94  A    between atoms: _252  and  _253
REMARK   95  A    between atoms: _253  and  _254
REMARK   96  A    between atoms: _254  and  _255
REMARK   97  A    between atoms: _264  and  _266
REMARK   98  A    between atoms: _266  and  _267
REMARK   99  A    between atoms: _266  and  _269
REMARK  100  A    between atoms: _269  and  _270
REMARK  101  A    between atoms: _276  and  _278
REMARK  102  A    between atoms: _278  and  _279
REMARK  103  A    between atoms: _278  and  _281
REMARK  104  A    between atoms: _281  and  _282
REMARK  105  A    between atoms: _285  and  _287
REMARK  106  A    between atoms: _287  and  _288
REMARK  107  A    between atoms: _290  and  _292
REMARK  108  A    between atoms: _292  and  _293
REMARK  109  A    between atoms: _292  and  _295
REMARK  110  A    between atoms: _295  and  _296
REMARK  111  A    between atoms: _300  and  _301
REMARK                            x       y       z     vdW  Elec       q    Type
REMARK                         _______ _______ _______ _____ _____    ______ ____
ROOT
ATOM      1  O   HOH     1      -9.570 -24.336   1.292  0.00  0.00    +0.000 OA
ENDROOT
TORSDOF 0
REMARK  Name = ../refined-set-2016/3r88/3r88_pocket.pdb
REMARK  111 active torsions:
REMARK  status: ('A' for Active; 'I' for Inactive)
REMARK    1  A    between atoms: _1  and  _3
REMARK    2  A    between atoms: _3  and  _4
REMARK    3  A    between atoms: _3  and  _6
REMARK    4  A    between atoms: _6  and  _7
REMARK    5  A    between atoms: _7  and  _8
REMARK    6  A    between atoms: _10  and  _12
REMARK    7  A    between atoms: _12  and  _13
REMARK    8  A    between atoms: _12  and  _15
REMARK    9  A    between atoms: _15  and  _16
REMARK   10  A    between atoms: _16  and  _17
REMARK   11  A    between atoms: _19  and  _21
REMARK   12  A    between atoms: _21  and  _22
REMARK   13  A    between atoms: _21  and  _24
REMARK   14  A    between atoms: _24  and  _25
REMARK   15  A    between atoms: _25  and  _26
REMARK   16  A    between atoms: _28  and  _30
REMARK   17  A    between atoms: _30  and  _31
REMARK   18  A    between atoms: _34  and  _36
REMARK   19  A    between atoms: _36  and  _37
REMARK   20  A    between atoms: _36  and  _39
REMARK   21  A    between atoms: _39  and  _40
REMARK   22  A    between atoms: _45  and  _47
REMARK   23  A    between atoms: _47  and  _48
REMARK   24  A    between atoms: _50  and  _52
REMARK   25  A    between atoms: _52  and  _53
REMARK   26  A    between atoms: _52  and  _55
REMARK   27  A    between atoms: _55  and  _56
REMARK   28  A    between atoms: _61  and  _63
REMARK   29  A    between atoms: _63  and  _64
REMARK   30  A    between atoms: _63  and  _66
REMARK   31  A    between atoms: _66  and  _67
REMARK   32  A    between atoms: _67  and  _68
REMARK   33  A    between atoms: _68  and  _69
REMARK   34  A    between atoms: _78  and  _80
REMARK   35  A    between atoms: _80  and  _81
REMARK   36  A    between atoms: _84  and  _86
REMARK   37  A    between atoms: _86  and  _87
REMARK   38  A    between atoms: _90  and  _92
REMARK   39  A    between atoms: _92  and  _93
REMARK   40  A    between atoms: _92  and  _95
REMARK   41  A    between atoms: _95  and  _96
REMARK   42  A    between atoms: _102  and  _104
REMARK   43  A    between atoms: _104  and  _105
REMARK   44  A    between atoms: _109  and  _110
REMARK   45  A    between atoms: _115  and  _117
REMARK   46  A    between atoms: _117  and  _118
REMARK   47  A    between atoms: _117  and  _120
REMARK   48  A    between atoms: _120  and  _121
REMARK   49  A    between atoms: _121  and  _122
REMARK   50  A    between atoms: _122  and  _123
REMARK   51  A    between atoms: _132  and  _134
REMARK   52  A    between atoms: _134  and  _135
REMARK   53  A    between atoms: _134  and  _137
REMARK   54  A    between atoms: _137  and  _138
REMARK   55  A    between atoms: _144  and  _146
REMARK   56  A    between atoms: _146  and  _147
REMARK   57  A    between atoms: _146  and  _149
REMARK   58  A    between atoms: _149  and  _150
REMARK   59  A    between atoms: _156  and  _157
REMARK   60  A    between atoms: _162  and  _164
REMARK   61  A    between atoms: _164  and  _165
REMARK   62  A    between atoms: _164  and  _167
REMARK   63  A    between atoms: _167  and  _168
REMARK   64  A    between atoms: _170  and  _172
REMARK   65  A    between atoms: _172  and  _173
REMARK   66  A    between atoms: _172  and  _175
REMARK   67  A    between atoms: _175  and  _176
REMARK   68  A    between atoms: _181  and  _182
REMARK   69  A    between atoms: _184  and  _186
REMARK   70  A    between atoms: _186  and  _187
REMARK   71  A    between atoms: _186  and  _189
REMARK   72  A    between atoms: _189  and  _190
REMARK   73  A    between atoms: _190  and  _191
REMARK   74  A    between atoms: _191  and  _192
REMARK   75  A    between atoms: _201  and  _203
REMARK   76  A    between atoms: _203  and  _204
REMARK   77  A    between atoms: _203  and  _206
REMARK   78  A    between atoms: _206  and  _207
REMARK   79  A    between atoms: _212  and  _214
REMARK   80  A    between atoms: _214  and  _215
REMARK   81  A    between atoms: _218  and  _220
REMARK   82  A    between atoms: _220  and  _221
REMARK   83  A    between atoms: _224  and  _226
REMARK   84  A    between atoms: _226  and  _227
REMARK   85  A    between atoms: _230  and  _232
REMARK   86  A    between atoms: _232  and  _233
REMARK   87  A    between atoms: _232  and  _235
REMARK   88  A    between atoms: _235  and  _236
REMARK   89  A    between atoms: _236  and  _237
REMARK   90  A    between atoms: _237  and  _238
REMARK   91  A    between atoms: _247  and  _249
REMARK   92  A    between atoms: _249  and  _250
REMARK   93  A    between atoms: _249  and  _252
REMARK   94  A    between atoms: _252  and  _253
REMARK   95  A    between atoms: _253  and  _254
REMARK   96  A    between atoms: _254  and  _255
REMARK   97  A    between atoms: _264  and  _266
REMARK   98  A    between atoms: _266  and  _267
REMARK   99  A    between atoms: _266  and  _269
REMARK  100  A    between atoms: _269  and  _270
REMARK  101  A    between atoms: _276  and  _278
REMARK  102  A    between atoms: _278  and  _279
REMARK  103  A    between atoms: _278  and  _281
REMARK  104  A    between atoms: _281  and  _282
REMARK  105  A    between atoms: _285  and  _287
REMARK  106  A    between atoms: _287  and  _288
REMARK  107  A    between atoms: _290  and  _292
REMARK  108  A    between atoms: _292  and  _293
REMARK  109  A    between atoms: _292  and  _295
REMARK  110  A    between atoms: _295  and  _296
REMARK  111  A    between atoms: _300  and  _301
REMARK                            x       y       z     vdW  Elec       q    Type
REMARK                         _______ _______ _______ _____ _____    ______ ____
ROOT
ATOM      1  O   HOH     1      -7.109 -24.180   0.007  0.00  0.00    +0.000 OA
ENDROOT
TORSDOF 0
REMARK  Name = ../refined-set-2016/3r88/3r88_pocket.pdb
REMARK  111 active torsions:
REMARK  status: ('A' for Active; 'I' for Inactive)
REMARK    1  A    between atoms: _1  and  _3
REMARK    2  A    between atoms: _3  and  _4
REMARK    3  A    between atoms: _3  and  _6
REMARK    4  A    between atoms: _6  and  _7
REMARK    5  A    between atoms: _7  and  _8
REMARK    6  A    between atoms: _10  and  _12
REMARK    7  A    between atoms: _12  and  _13
REMARK    8  A    between atoms: _12  and  _15
REMARK    9  A    between atoms: _15  and  _16
REMARK   10  A    between atoms: _16  and  _17
REMARK   11  A    between atoms: _19  and  _21
REMARK   12  A    between atoms: _21  and  _22
REMARK   13  A    between atoms: _21  and  _24
REMARK   14  A    between atoms: _24  and  _25
REMARK   15  A    between atoms: _25  and  _26
REMARK   16  A    between atoms: _28  and  _30
REMARK   17  A    between atoms: _30  and  _31
REMARK   18  A    between atoms: _34  and  _36
REMARK   19  A    between atoms: _36  and  _37
REMARK   20  A    between atoms: _36  and  _39
REMARK   21  A    between atoms: _39  and  _40
REMARK   22  A    between atoms: _45  and  _47
REMARK   23  A    between atoms: _47  and  _48
REMARK   24  A    between atoms: _50  and  _52
REMARK   25  A    between atoms: _52  and  _53
REMARK   26  A    between atoms: _52  and  _55
REMARK   27  A    between atoms: _55  and  _56
REMARK   28  A    between atoms: _61  and  _63
REMARK   29  A    between atoms: _63  and  _64
REMARK   30  A    between atoms: _63  and  _66
REMARK   31  A    between atoms: _66  and  _67
REMARK   32  A    between atoms: _67  and  _68
REMARK   33  A    between atoms: _68  and  _69
REMARK   34  A    between atoms: _78  and  _80
REMARK   35  A    between atoms: _80  and  _81
REMARK   36  A    between atoms: _84  and  _86
REMARK   37  A    between atoms: _86  and  _87
REMARK   38  A    between atoms: _90  and  _92
REMARK   39  A    between atoms: _92  and  _93
REMARK   40  A    between atoms: _92  and  _95
REMARK   41  A    between atoms: _95  and  _96
REMARK   42  A    between atoms: _102  and  _104
REMARK   43  A    between atoms: _104  and  _105
REMARK   44  A    between atoms: _109  and  _110
REMARK   45  A    between atoms: _115  and  _117
REMARK   46  A    between atoms: _117  and  _118
REMARK   47  A    between atoms: _117  and  _120
REMARK   48  A    between atoms: _120  and  _121
REMARK   49  A    between atoms: _121  and  _122
REMARK   50  A    between atoms: _122  and  _123
REMARK   51  A    between atoms: _132  and  _134
REMARK   52  A    between atoms: _134  and  _135
REMARK   53  A    between atoms: _134  and  _137
REMARK   54  A    between atoms: _137  and  _138
REMARK   55  A    between atoms: _144  and  _146
REMARK   56  A    between atoms: _146  and  _147
REMARK   57  A    between atoms: _146  and  _149
REMARK   58  A    between atoms: _149  and  _150
REMARK   59  A    between atoms: _156  and  _157
REMARK   60  A    between atoms: _162  and  _164
REMARK   61  A    between atoms: _164  and  _165
REMARK   62  A    between atoms: _164  and  _167
REMARK   63  A    between atoms: _167  and  _168
REMARK   64  A    between atoms: _170  and  _172
REMARK   65  A    between atoms: _172  and  _173
REMARK   66  A    between atoms: _172  and  _175
REMARK   67  A    between atoms: _175  and  _176
REMARK   68  A    between atoms: _181  and  _182
REMARK   69  A    between atoms: _184  and  _186
REMARK   70  A    between atoms: _186  and  _187
REMARK   71  A    between atoms: _186  and  _189
REMARK   72  A    between atoms: _189  and  _190
REMARK   73  A    between atoms: _190  and  _191
REMARK   74  A    between atoms: _191  and  _192
REMARK   75  A    between atoms: _201  and  _203
REMARK   76  A    between atoms: _203  and  _204
REMARK   77  A    between atoms: _203  and  _206
REMARK   78  A    between atoms: _206  and  _207
REMARK   79  A    between atoms: _212  and  _214
REMARK   80  A    between atoms: _214  and  _215
REMARK   81  A    between atoms: _218  and  _220
REMARK   82  A    between atoms: _220  and  _221
REMARK   83  A    between atoms: _224  and  _226
REMARK   84  A    between atoms: _226  and  _227
REMARK   85  A    between atoms: _230  and  _232
REMARK   86  A    between atoms: _232  and  _233
REMARK   87  A    between atoms: _232  and  _235
REMARK   88  A    between atoms: _235  and  _236
REMARK   89  A    between atoms: _236  and  _237
REMARK   90  A    between atoms: _237  and  _238
REMARK   91  A    between atoms: _247  and  _249
REMARK   92  A    between atoms: _249  and  _250
REMARK   93  A    between atoms: _249  and  _252
REMARK   94  A    between atoms: _252  and  _253
REMARK   95  A    between atoms: _253  and  _254
REMARK   96  A    between atoms: _254  and  _255
REMARK   97  A    between atoms: _264  and  _266
REMARK   98  A    between atoms: _266  and  _267
REMARK   99  A    between atoms: _266  and  _269
REMARK  100  A    between atoms: _269  and  _270
REMARK  101  A    between atoms: _276  and  _278
REMARK  102  A    between atoms: _278  and  _279
REMARK  103  A    between atoms: _278  and  _281
REMARK  104  A    between atoms: _281  and  _282
REMARK  105  A    between atoms: _285  and  _287
REMARK  106  A    between atoms: _287  and  _288
REMARK  107  A    between atoms: _290  and  _292
REMARK  108  A    between atoms: _292  and  _293
REMARK  109  A    between atoms: _292  and  _295
REMARK  110  A    between atoms: _295  and  _296
REMARK  111  A    between atoms: _300  and  _301
REMARK                            x       y       z     vdW  Elec       q    Type
REMARK                         _______ _______ _______ _____ _____    ______ ____
ROOT
ATOM      1  O   HOH     1      -4.147 -21.534   6.727  0.00  0.00    +0.000 OA
ENDROOT
TORSDOF 0
REMARK  Name = ../refined-set-2016/3r88/3r88_pocket.pdb
REMARK  111 active torsions:
REMARK  status: ('A' for Active; 'I' for Inactive)
REMARK    1  A    between atoms: _1  and  _3
REMARK    2  A    between atoms: _3  and  _4
REMARK    3  A    between atoms: _3  and  _6
REMARK    4  A    between atoms: _6  and  _7
REMARK    5  A    between atoms: _7  and  _8
REMARK    6  A    between atoms: _10  and  _12
REMARK    7  A    between atoms: _12  and  _13
REMARK    8  A    between atoms: _12  and  _15
REMARK    9  A    between atoms: _15  and  _16
REMARK   10  A    between atoms: _16  and  _17
REMARK   11  A    between atoms: _19  and  _21
REMARK   12  A    between atoms: _21  and  _22
REMARK   13  A    between atoms: _21  and  _24
REMARK   14  A    between atoms: _24  and  _25
REMARK   15  A    between atoms: _25  and  _26
REMARK   16  A    between atoms: _28  and  _30
REMARK   17  A    between atoms: _30  and  _31
REMARK   18  A    between atoms: _34  and  _36
REMARK   19  A    between atoms: _36  and  _37
REMARK   20  A    between atoms: _36  and  _39
REMARK   21  A    between atoms: _39  and  _40
REMARK   22  A    between atoms: _45  and  _47
REMARK   23  A    between atoms: _47  and  _48
REMARK   24  A    between atoms: _50  and  _52
REMARK   25  A    between atoms: _52  and  _53
REMARK   26  A    between atoms: _52  and  _55
REMARK   27  A    between atoms: _55  and  _56
REMARK   28  A    between atoms: _61  and  _63
REMARK   29  A    between atoms: _63  and  _64
REMARK   30  A    between atoms: _63  and  _66
REMARK   31  A    between atoms: _66  and  _67
REMARK   32  A    between atoms: _67  and  _68
REMARK   33  A    between atoms: _68  and  _69
REMARK   34  A    between atoms: _78  and  _80
REMARK   35  A    between atoms: _80  and  _81
REMARK   36  A    between atoms: _84  and  _86
REMARK   37  A    between atoms: _86  and  _87
REMARK   38  A    between atoms: _90  and  _92
REMARK   39  A    between atoms: _92  and  _93
REMARK   40  A    between atoms: _92  and  _95
REMARK   41  A    between atoms: _95  and  _96
REMARK   42  A    between atoms: _102  and  _104
REMARK   43  A    between atoms: _104  and  _105
REMARK   44  A    between atoms: _109  and  _110
REMARK   45  A    between atoms: _115  and  _117
REMARK   46  A    between atoms: _117  and  _118
REMARK   47  A    between atoms: _117  and  _120
REMARK   48  A    between atoms: _120  and  _121
REMARK   49  A    between atoms: _121  and  _122
REMARK   50  A    between atoms: _122  and  _123
REMARK   51  A    between atoms: _132  and  _134
REMARK   52  A    between atoms: _134  and  _135
REMARK   53  A    between atoms: _134  and  _137
REMARK   54  A    between atoms: _137  and  _138
REMARK   55  A    between atoms: _144  and  _146
REMARK   56  A    between atoms: _146  and  _147
REMARK   57  A    between atoms: _146  and  _149
REMARK   58  A    between atoms: _149  and  _150
REMARK   59  A    between atoms: _156  and  _157
REMARK   60  A    between atoms: _162  and  _164
REMARK   61  A    between atoms: _164  and  _165
REMARK   62  A    between atoms: _164  and  _167
REMARK   63  A    between atoms: _167  and  _168
REMARK   64  A    between atoms: _170  and  _172
REMARK   65  A    between atoms: _172  and  _173
REMARK   66  A    between atoms: _172  and  _175
REMARK   67  A    between atoms: _175  and  _176
REMARK   68  A    between atoms: _181  and  _182
REMARK   69  A    between atoms: _184  and  _186
REMARK   70  A    between atoms: _186  and  _187
REMARK   71  A    between atoms: _186  and  _189
REMARK   72  A    between atoms: _189  and  _190
REMARK   73  A    between atoms: _190  and  _191
REMARK   74  A    between atoms: _191  and  _192
REMARK   75  A    between atoms: _201  and  _203
REMARK   76  A    between atoms: _203  and  _204
REMARK   77  A    between atoms: _203  and  _206
REMARK   78  A    between atoms: _206  and  _207
REMARK   79  A    between atoms: _212  and  _214
REMARK   80  A    between atoms: _214  and  _215
REMARK   81  A    between atoms: _218  and  _220
REMARK   82  A    between atoms: _220  and  _221
REMARK   83  A    between atoms: _224  and  _226
REMARK   84  A    between atoms: _226  and  _227
REMARK   85  A    between atoms: _230  and  _232
REMARK   86  A    between atoms: _232  and  _233
REMARK   87  A    between atoms: _232  and  _235
REMARK   88  A    between atoms: _235  and  _236
REMARK   89  A    between atoms: _236  and  _237
REMARK   90  A    between atoms: _237  and  _238
REMARK   91  A    between atoms: _247  and  _249
REMARK   92  A    between atoms: _249  and  _250
REMARK   93  A    between atoms: _249  and  _252
REMARK   94  A    between atoms: _252  and  _253
REMARK   95  A    between atoms: _253  and  _254
REMARK   96  A    between atoms: _254  and  _255
REMARK   97  A    between atoms: _264  and  _266
REMARK   98  A    between atoms: _266  and  _267
REMARK   99  A    between atoms: _266  and  _269
REMARK  100  A    between atoms: _269  and  _270
REMARK  101  A    between atoms: _276  and  _278
REMARK  102  A    between atoms: _278  and  _279
REMARK  103  A    between atoms: _278  and  _281
REMARK  104  A    between atoms: _281  and  _282
REMARK  105  A    between atoms: _285  and  _287
REMARK  106  A    between atoms: _287  and  _288
REMARK  107  A    between atoms: _290  and  _292
REMARK  108  A    between atoms: _292  and  _293
REMARK  109  A    between atoms: _292  and  _295
REMARK  110  A    between atoms: _295  and  _296
REMARK  111  A    between atoms: _300  and  _301
REMARK                            x       y       z     vdW  Elec       q    Type
REMARK                         _______ _______ _______ _____ _____    ______ ____
ROOT
ATOM      1  O   HOH     1      -4.034 -30.042  12.101  0.00  0.00    +0.000 OA
ENDROOT
TORSDOF 0
REMARK  Name = ../refined-set-2016/3r88/3r88_pocket.pdb
REMARK  111 active torsions:
REMARK  status: ('A' for Active; 'I' for Inactive)
REMARK    1  A    between atoms: _1  and  _3
REMARK    2  A    between atoms: _3  and  _4
REMARK    3  A    between atoms: _3  and  _6
REMARK    4  A    between atoms: _6  and  _7
REMARK    5  A    between atoms: _7  and  _8
REMARK    6  A    between atoms: _10  and  _12
REMARK    7  A    between atoms: _12  and  _13
REMARK    8  A    between atoms: _12  and  _15
REMARK    9  A    between atoms: _15  and  _16
REMARK   10  A    between atoms: _16  and  _17
REMARK   11  A    between atoms: _19  and  _21
REMARK   12  A    between atoms: _21  and  _22
REMARK   13  A    between atoms: _21  and  _24
REMARK   14  A    between atoms: _24  and  _25
REMARK   15  A    between atoms: _25  and  _26
REMARK   16  A    between atoms: _28  and  _30
REMARK   17  A    between atoms: _30  and  _31
REMARK   18  A    between atoms: _34  and  _36
REMARK   19  A    between atoms: _36  and  _37
REMARK   20  A    between atoms: _36  and  _39
REMARK   21  A    between atoms: _39  and  _40
REMARK   22  A    between atoms: _45  and  _47
REMARK   23  A    between atoms: _47  and  _48
REMARK   24  A    between atoms: _50  and  _52
REMARK   25  A    between atoms: _52  and  _53
REMARK   26  A    between atoms: _52  and  _55
REMARK   27  A    between atoms: _55  and  _56
REMARK   28  A    between atoms: _61  and  _63
REMARK   29  A    between atoms: _63  and  _64
REMARK   30  A    between atoms: _63  and  _66
REMARK   31  A    between atoms: _66  and  _67
REMARK   32  A    between atoms: _67  and  _68
REMARK   33  A    between atoms: _68  and  _69
REMARK   34  A    between atoms: _78  and  _80
REMARK   35  A    between atoms: _80  and  _81
REMARK   36  A    between atoms: _84  and  _86
REMARK   37  A    between atoms: _86  and  _87
REMARK   38  A    between atoms: _90  and  _92
REMARK   39  A    between atoms: _92  and  _93
REMARK   40  A    between atoms: _92  and  _95
REMARK   41  A    between atoms: _95  and  _96
REMARK   42  A    between atoms: _102  and  _104
REMARK   43  A    between atoms: _104  and  _105
REMARK   44  A    between atoms: _109  and  _110
REMARK   45  A    between atoms: _115  and  _117
REMARK   46  A    between atoms: _117  and  _118
REMARK   47  A    between atoms: _117  and  _120
REMARK   48  A    between atoms: _120  and  _121
REMARK   49  A    between atoms: _121  and  _122
REMARK   50  A    between atoms: _122  and  _123
REMARK   51  A    between atoms: _132  and  _134
REMARK   52  A    between atoms: _134  and  _135
REMARK   53  A    between atoms: _134  and  _137
REMARK   54  A    between atoms: _137  and  _138
REMARK   55  A    between atoms: _144  and  _146
REMARK   56  A    between atoms: _146  and  _147
REMARK   57  A    between atoms: _146  and  _149
REMARK   58  A    between atoms: _149  and  _150
REMARK   59  A    between atoms: _156  and  _157
REMARK   60  A    between atoms: _162  and  _164
REMARK   61  A    between atoms: _164  and  _165
REMARK   62  A    between atoms: _164  and  _167
REMARK   63  A    between atoms: _167  and  _168
REMARK   64  A    between atoms: _170  and  _172
REMARK   65  A    between atoms: _172  and  _173
REMARK   66  A    between atoms: _172  and  _175
REMARK   67  A    between atoms: _175  and  _176
REMARK   68  A    between atoms: _181  and  _182
REMARK   69  A    between atoms: _184  and  _186
REMARK   70  A    between atoms: _186  and  _187
REMARK   71  A    between atoms: _186  and  _189
REMARK   72  A    between atoms: _189  and  _190
REMARK   73  A    between atoms: _190  and  _191
REMARK   74  A    between atoms: _191  and  _192
REMARK   75  A    between atoms: _201  and  _203
REMARK   76  A    between atoms: _203  and  _204
REMARK   77  A    between atoms: _203  and  _206
REMARK   78  A    between atoms: _206  and  _207
REMARK   79  A    between atoms: _212  and  _214
REMARK   80  A    between atoms: _214  and  _215
REMARK   81  A    between atoms: _218  and  _220
REMARK   82  A    between atoms: _220  and  _221
REMARK   83  A    between atoms: _224  and  _226
REMARK   84  A    between atoms: _226  and  _227
REMARK   85  A    between atoms: _230  and  _232
REMARK   86  A    between atoms: _232  and  _233
REMARK   87  A    between atoms: _232  and  _235
REMARK   88  A    between atoms: _235  and  _236
REMARK   89  A    between atoms: _236  and  _237
REMARK   90  A    between atoms: _237  and  _238
REMARK   91  A    between atoms: _247  and  _249
REMARK   92  A    between atoms: _249  and  _250
REMARK   93  A    between atoms: _249  and  _252
REMARK   94  A    between atoms: _252  and  _253
REMARK   95  A    between atoms: _253  and  _254
REMARK   96  A    between atoms: _254  and  _255
REMARK   97  A    between atoms: _264  and  _266
REMARK   98  A    between atoms: _266  and  _267
REMARK   99  A    between atoms: _266  and  _269
REMARK  100  A    between atoms: _269  and  _270
REMARK  101  A    between atoms: _276  and  _278
REMARK  102  A    between atoms: _278  and  _279
REMARK  103  A    between atoms: _278  and  _281
REMARK  104  A    between atoms: _281  and  _282
REMARK  105  A    between atoms: _285  and  _287
REMARK  106  A    between atoms: _287  and  _288
REMARK  107  A    between atoms: _290  and  _292
REMARK  108  A    between atoms: _292  and  _293
REMARK  109  A    between atoms: _292  and  _295
REMARK  110  A    between atoms: _295  and  _296
REMARK  111  A    between atoms: _300  and  _301
REMARK                            x       y       z     vdW  Elec       q    Type
REMARK                         _______ _______ _______ _____ _____    ______ ____
ROOT
ATOM      1  O   HOH     1       2.489 -28.028  13.699  0.00  0.00    +0.000 OA
ENDROOT
TORSDOF 0
REMARK  Name = ../refined-set-2016/3r88/3r88_pocket.pdb
REMARK  111 active torsions:
REMARK  status: ('A' for Active; 'I' for Inactive)
REMARK    1  A    between atoms: _1  and  _3
REMARK    2  A    between atoms: _3  and  _4
REMARK    3  A    between atoms: _3  and  _6
REMARK    4  A    between atoms: _6  and  _7
REMARK    5  A    between atoms: _7  and  _8
REMARK    6  A    between atoms: _10  and  _12
REMARK    7  A    between atoms: _12  and  _13
REMARK    8  A    between atoms: _12  and  _15
REMARK    9  A    between atoms: _15  and  _16
REMARK   10  A    between atoms: _16  and  _17
REMARK   11  A    between atoms: _19  and  _21
REMARK   12  A    between atoms: _21  and  _22
REMARK   13  A    between atoms: _21  and  _24
REMARK   14  A    between atoms: _24  and  _25
REMARK   15  A    between atoms: _25  and  _26
REMARK   16  A    between atoms: _28  and  _30
REMARK   17  A    between atoms: _30  and  _31
REMARK   18  A    between atoms: _34  and  _36
REMARK   19  A    between atoms: _36  and  _37
REMARK   20  A    between atoms: _36  and  _39
REMARK   21  A    between atoms: _39  and  _40
REMARK   22  A    between atoms: _45  and  _47
REMARK   23  A    between atoms: _47  and  _48
REMARK   24  A    between atoms: _50  and  _52
REMARK   25  A    between atoms: _52  and  _53
REMARK   26  A    between atoms: _52  and  _55
REMARK   27  A    between atoms: _55  and  _56
REMARK   28  A    between atoms: _61  and  _63
REMARK   29  A    between atoms: _63  and  _64
REMARK   30  A    between atoms: _63  and  _66
REMARK   31  A    between atoms: _66  and  _67
REMARK   32  A    between atoms: _67  and  _68
REMARK   33  A    between atoms: _68  and  _69
REMARK   34  A    between atoms: _78  and  _80
REMARK   35  A    between atoms: _80  and  _81
REMARK   36  A    between atoms: _84  and  _86
REMARK   37  A    between atoms: _86  and  _87
REMARK   38  A    between atoms: _90  and  _92
REMARK   39  A    between atoms: _92  and  _93
REMARK   40  A    between atoms: _92  and  _95
REMARK   41  A    between atoms: _95  and  _96
REMARK   42  A    between atoms: _102  and  _104
REMARK   43  A    between atoms: _104  and  _105
REMARK   44  A    between atoms: _109  and  _110
REMARK   45  A    between atoms: _115  and  _117
REMARK   46  A    between atoms: _117  and  _118
REMARK   47  A    between atoms: _117  and  _120
REMARK   48  A    between atoms: _120  and  _121
REMARK   49  A    between atoms: _121  and  _122
REMARK   50  A    between atoms: _122  and  _123
REMARK   51  A    between atoms: _132  and  _134
REMARK   52  A    between atoms: _134  and  _135
REMARK   53  A    between atoms: _134  and  _137
REMARK   54  A    between atoms: _137  and  _138
REMARK   55  A    between atoms: _144  and  _146
REMARK   56  A    between atoms: _146  and  _147
REMARK   57  A    between atoms: _146  and  _149
REMARK   58  A    between atoms: _149  and  _150
REMARK   59  A    between atoms: _156  and  _157
REMARK   60  A    between atoms: _162  and  _164
REMARK   61  A    between atoms: _164  and  _165
REMARK   62  A    between atoms: _164  and  _167
REMARK   63  A    between atoms: _167  and  _168
REMARK   64  A    between atoms: _170  and  _172
REMARK   65  A    between atoms: _172  and  _173
REMARK   66  A    between atoms: _172  and  _175
REMARK   67  A    between atoms: _175  and  _176
REMARK   68  A    between atoms: _181  and  _182
REMARK   69  A    between atoms: _184  and  _186
REMARK   70  A    between atoms: _186  and  _187
REMARK   71  A    between atoms: _186  and  _189
REMARK   72  A    between atoms: _189  and  _190
REMARK   73  A    between atoms: _190  and  _191
REMARK   74  A    between atoms: _191  and  _192
REMARK   75  A    between atoms: _201  and  _203
REMARK   76  A    between atoms: _203  and  _204
REMARK   77  A    between atoms: _203  and  _206
REMARK   78  A    between atoms: _206  and  _207
REMARK   79  A    between atoms: _212  and  _214
REMARK   80  A    between atoms: _214  and  _215
REMARK   81  A    between atoms: _218  and  _220
REMARK   82  A    between atoms: _220  and  _221
REMARK   83  A    between atoms: _224  and  _226
REMARK   84  A    between atoms: _226  and  _227
REMARK   85  A    between atoms: _230  and  _232
REMARK   86  A    between atoms: _232  and  _233
REMARK   87  A    between atoms: _232  and  _235
REMARK   88  A    between atoms: _235  and  _236
REMARK   89  A    between atoms: _236  and  _237
REMARK   90  A    between atoms: _237  and  _238
REMARK   91  A    between atoms: _247  and  _249
REMARK   92  A    between atoms: _249  and  _250
REMARK   93  A    between atoms: _249  and  _252
REMARK   94  A    between atoms: _252  and  _253
REMARK   95  A    between atoms: _253  and  _254
REMARK   96  A    between atoms: _254  and  _255
REMARK   97  A    between atoms: _264  and  _266
REMARK   98  A    between atoms: _266  and  _267
REMARK   99  A    between atoms: _266  and  _269
REMARK  100  A    between atoms: _269  and  _270
REMARK  101  A    between atoms: _276  and  _278
REMARK  102  A    between atoms: _278  and  _279
REMARK  103  A    between atoms: _278  and  _281
REMARK  104  A    between atoms: _281  and  _282
REMARK  105  A    between atoms: _285  and  _287
REMARK  106  A    between atoms: _287  and  _288
REMARK  107  A    between atoms: _290  and  _292
REMARK  108  A    between atoms: _292  and  _293
REMARK  109  A    between atoms: _292  and  _295
REMARK  110  A    between atoms: _295  and  _296
REMARK  111  A    between atoms: _300  and  _301
REMARK                            x       y       z     vdW  Elec       q    Type
REMARK                         _______ _______ _______ _____ _____    ______ ____
ROOT
ATOM      1  O   HOH     1     -11.726 -29.901  10.872  0.00  0.00    +0.000 OA
ENDROOT
TORSDOF 0
REMARK  Name = ../refined-set-2016/3r88/3r88_pocket.pdb
REMARK  111 active torsions:
REMARK  status: ('A' for Active; 'I' for Inactive)
REMARK    1  A    between atoms: _1  and  _3
REMARK    2  A    between atoms: _3  and  _4
REMARK    3  A    between atoms: _3  and  _6
REMARK    4  A    between atoms: _6  and  _7
REMARK    5  A    between atoms: _7  and  _8
REMARK    6  A    between atoms: _10  and  _12
REMARK    7  A    between atoms: _12  and  _13
REMARK    8  A    between atoms: _12  and  _15
REMARK    9  A    between atoms: _15  and  _16
REMARK   10  A    between atoms: _16  and  _17
REMARK   11  A    between atoms: _19  and  _21
REMARK   12  A    between atoms: _21  and  _22
REMARK   13  A    between atoms: _21  and  _24
REMARK   14  A    between atoms: _24  and  _25
REMARK   15  A    between atoms: _25  and  _26
REMARK   16  A    between atoms: _28  and  _30
REMARK   17  A    between atoms: _30  and  _31
REMARK   18  A    between atoms: _34  and  _36
REMARK   19  A    between atoms: _36  and  _37
REMARK   20  A    between atoms: _36  and  _39
REMARK   21  A    between atoms: _39  and  _40
REMARK   22  A    between atoms: _45  and  _47
REMARK   23  A    between atoms: _47  and  _48
REMARK   24  A    between atoms: _50  and  _52
REMARK   25  A    between atoms: _52  and  _53
REMARK   26  A    between atoms: _52  and  _55
REMARK   27  A    between atoms: _55  and  _56
REMARK   28  A    between atoms: _61  and  _63
REMARK   29  A    between atoms: _63  and  _64
REMARK   30  A    between atoms: _63  and  _66
REMARK   31  A    between atoms: _66  and  _67
REMARK   32  A    between atoms: _67  and  _68
REMARK   33  A    between atoms: _68  and  _69
REMARK   34  A    between atoms: _78  and  _80
REMARK   35  A    between atoms: _80  and  _81
REMARK   36  A    between atoms: _84  and  _86
REMARK   37  A    between atoms: _86  and  _87
REMARK   38  A    between atoms: _90  and  _92
REMARK   39  A    between atoms: _92  and  _93
REMARK   40  A    between atoms: _92  and  _95
REMARK   41  A    between atoms: _95  and  _96
REMARK   42  A    between atoms: _102  and  _104
REMARK   43  A    between atoms: _104  and  _105
REMARK   44  A    between atoms: _109  and  _110
REMARK   45  A    between atoms: _115  and  _117
REMARK   46  A    between atoms: _117  and  _118
REMARK   47  A    between atoms: _117  and  _120
REMARK   48  A    between atoms: _120  and  _121
REMARK   49  A    between atoms: _121  and  _122
REMARK   50  A    between atoms: _122  and  _123
REMARK   51  A    between atoms: _132  and  _134
REMARK   52  A    between atoms: _134  and  _135
REMARK   53  A    between atoms: _134  and  _137
REMARK   54  A    between atoms: _137  and  _138
REMARK   55  A    between atoms: _144  and  _146
REMARK   56  A    between atoms: _146  and  _147
REMARK   57  A    between atoms: _146  and  _149
REMARK   58  A    between atoms: _149  and  _150
REMARK   59  A    between atoms: _156  and  _157
REMARK   60  A    between atoms: _162  and  _164
REMARK   61  A    between atoms: _164  and  _165
REMARK   62  A    between atoms: _164  and  _167
REMARK   63  A    between atoms: _167  and  _168
REMARK   64  A    between atoms: _170  and  _172
REMARK   65  A    between atoms: _172  and  _173
REMARK   66  A    between atoms: _172  and  _175
REMARK   67  A    between atoms: _175  and  _176
REMARK   68  A    between atoms: _181  and  _182
REMARK   69  A    between atoms: _184  and  _186
REMARK   70  A    between atoms: _186  and  _187
REMARK   71  A    between atoms: _186  and  _189
REMARK   72  A    between atoms: _189  and  _190
REMARK   73  A    between atoms: _190  and  _191
REMARK   74  A    between atoms: _191  and  _192
REMARK   75  A    between atoms: _201  and  _203
REMARK   76  A    between atoms: _203  and  _204
REMARK   77  A    between atoms: _203  and  _206
REMARK   78  A    between atoms: _206  and  _207
REMARK   79  A    between atoms: _212  and  _214
REMARK   80  A    between atoms: _214  and  _215
REMARK   81  A    between atoms: _218  and  _220
REMARK   82  A    between atoms: _220  and  _221
REMARK   83  A    between atoms: _224  and  _226
REMARK   84  A    between atoms: _226  and  _227
REMARK   85  A    between atoms: _230  and  _232
REMARK   86  A    between atoms: _232  and  _233
REMARK   87  A    between atoms: _232  and  _235
REMARK   88  A    between atoms: _235  and  _236
REMARK   89  A    between atoms: _236  and  _237
REMARK   90  A    between atoms: _237  and  _238
REMARK   91  A    between atoms: _247  and  _249
REMARK   92  A    between atoms: _249  and  _250
REMARK   93  A    between atoms: _249  and  _252
REMARK   94  A    between atoms: _252  and  _253
REMARK   95  A    between atoms: _253  and  _254
REMARK   96  A    between atoms: _254  and  _255
REMARK   97  A    between atoms: _264  and  _266
REMARK   98  A    between atoms: _266  and  _267
REMARK   99  A    between atoms: _266  and  _269
REMARK  100  A    between atoms: _269  and  _270
REMARK  101  A    between atoms: _276  and  _278
REMARK  102  A    between atoms: _278  and  _279
REMARK  103  A    between atoms: _278  and  _281
REMARK  104  A    between atoms: _281  and  _282
REMARK  105  A    between atoms: _285  and  _287
REMARK  106  A    between atoms: _287  and  _288
REMARK  107  A    between atoms: _290  and  _292
REMARK  108  A    between atoms: _292  and  _293
REMARK  109  A    between atoms: _292  and  _295
REMARK  110  A    between atoms: _295  and  _296
REMARK  111  A    between atoms: _300  and  _301
REMARK                            x       y       z     vdW  Elec       q    Type
REMARK                         _______ _______ _______ _____ _____    ______ ____
ROOT
ATOM      1  O   HOH     1      -8.578 -32.616  14.660  0.00  0.00    +0.000 OA
ENDROOT
TORSDOF 0
REMARK  Name = ../refined-set-2016/3r88/3r88_pocket.pdb
REMARK  111 active torsions:
REMARK  status: ('A' for Active; 'I' for Inactive)
REMARK    1  A    between atoms: _1  and  _3
REMARK    2  A    between atoms: _3  and  _4
REMARK    3  A    between atoms: _3  and  _6
REMARK    4  A    between atoms: _6  and  _7
REMARK    5  A    between atoms: _7  and  _8
REMARK    6  A    between atoms: _10  and  _12
REMARK    7  A    between atoms: _12  and  _13
REMARK    8  A    between atoms: _12  and  _15
REMARK    9  A    between atoms: _15  and  _16
REMARK   10  A    between atoms: _16  and  _17
REMARK   11  A    between atoms: _19  and  _21
REMARK   12  A    between atoms: _21  and  _22
REMARK   13  A    between atoms: _21  and  _24
REMARK   14  A    between atoms: _24  and  _25
REMARK   15  A    between atoms: _25  and  _26
REMARK   16  A    between atoms: _28  and  _30
REMARK   17  A    between atoms: _30  and  _31
REMARK   18  A    between atoms: _34  and  _36
REMARK   19  A    between atoms: _36  and  _37
REMARK   20  A    between atoms: _36  and  _39
REMARK   21  A    between atoms: _39  and  _40
REMARK   22  A    between atoms: _45  and  _47
REMARK   23  A    between atoms: _47  and  _48
REMARK   24  A    between atoms: _50  and  _52
REMARK   25  A    between atoms: _52  and  _53
REMARK   26  A    between atoms: _52  and  _55
REMARK   27  A    between atoms: _55  and  _56
REMARK   28  A    between atoms: _61  and  _63
REMARK   29  A    between atoms: _63  and  _64
REMARK   30  A    between atoms: _63  and  _66
REMARK   31  A    between atoms: _66  and  _67
REMARK   32  A    between atoms: _67  and  _68
REMARK   33  A    between atoms: _68  and  _69
REMARK   34  A    between atoms: _78  and  _80
REMARK   35  A    between atoms: _80  and  _81
REMARK   36  A    between atoms: _84  and  _86
REMARK   37  A    between atoms: _86  and  _87
REMARK   38  A    between atoms: _90  and  _92
REMARK   39  A    between atoms: _92  and  _93
REMARK   40  A    between atoms: _92  and  _95
REMARK   41  A    between atoms: _95  and  _96
REMARK   42  A    between atoms: _102  and  _104
REMARK   43  A    between atoms: _104  and  _105
REMARK   44  A    between atoms: _109  and  _110
REMARK   45  A    between atoms: _115  and  _117
REMARK   46  A    between atoms: _117  and  _118
REMARK   47  A    between atoms: _117  and  _120
REMARK   48  A    between atoms: _120  and  _121
REMARK   49  A    between atoms: _121  and  _122
REMARK   50  A    between atoms: _122  and  _123
REMARK   51  A    between atoms: _132  and  _134
REMARK   52  A    between atoms: _134  and  _135
REMARK   53  A    between atoms: _134  and  _137
REMARK   54  A    between atoms: _137  and  _138
REMARK   55  A    between atoms: _144  and  _146
REMARK   56  A    between atoms: _146  and  _147
REMARK   57  A    between atoms: _146  and  _149
REMARK   58  A    between atoms: _149  and  _150
REMARK   59  A    between atoms: _156  and  _157
REMARK   60  A    between atoms: _162  and  _164
REMARK   61  A    between atoms: _164  and  _165
REMARK   62  A    between atoms: _164  and  _167
REMARK   63  A    between atoms: _167  and  _168
REMARK   64  A    between atoms: _170  and  _172
REMARK   65  A    between atoms: _172  and  _173
REMARK   66  A    between atoms: _172  and  _175
REMARK   67  A    between atoms: _175  and  _176
REMARK   68  A    between atoms: _181  and  _182
REMARK   69  A    between atoms: _184  and  _186
REMARK   70  A    between atoms: _186  and  _187
REMARK   71  A    between atoms: _186  and  _189
REMARK   72  A    between atoms: _189  and  _190
REMARK   73  A    between atoms: _190  and  _191
REMARK   74  A    between atoms: _191  and  _192
REMARK   75  A    between atoms: _201  and  _203
REMARK   76  A    between atoms: _203  and  _204
REMARK   77  A    between atoms: _203  and  _206
REMARK   78  A    between atoms: _206  and  _207
REMARK   79  A    between atoms: _212  and  _214
REMARK   80  A    between atoms: _214  and  _215
REMARK   81  A    between atoms: _218  and  _220
REMARK   82  A    between atoms: _220  and  _221
REMARK   83  A    between atoms: _224  and  _226
REMARK   84  A    between atoms: _226  and  _227
REMARK   85  A    between atoms: _230  and  _232
REMARK   86  A    between atoms: _232  and  _233
REMARK   87  A    between atoms: _232  and  _235
REMARK   88  A    between atoms: _235  and  _236
REMARK   89  A    between atoms: _236  and  _237
REMARK   90  A    between atoms: _237  and  _238
REMARK   91  A    between atoms: _247  and  _249
REMARK   92  A    between atoms: _249  and  _250
REMARK   93  A    between atoms: _249  and  _252
REMARK   94  A    between atoms: _252  and  _253
REMARK   95  A    between atoms: _253  and  _254
REMARK   96  A    between atoms: _254  and  _255
REMARK   97  A    between atoms: _264  and  _266
REMARK   98  A    between atoms: _266  and  _267
REMARK   99  A    between atoms: _266  and  _269
REMARK  100  A    between atoms: _269  and  _270
REMARK  101  A    between atoms: _276  and  _278
REMARK  102  A    between atoms: _278  and  _279
REMARK  103  A    between atoms: _278  and  _281
REMARK  104  A    between atoms: _281  and  _282
REMARK  105  A    between atoms: _285  and  _287
REMARK  106  A    between atoms: _287  and  _288
REMARK  107  A    between atoms: _290  and  _292
REMARK  108  A    between atoms: _292  and  _293
REMARK  109  A    between atoms: _292  and  _295
REMARK  110  A    between atoms: _295  and  _296
REMARK  111  A    between atoms: _300  and  _301
REMARK                            x       y       z     vdW  Elec       q    Type
REMARK                         _______ _______ _______ _____ _____    ______ ____
ROOT
ATOM      1  O   HOH     1       0.214 -27.629   8.073  0.00  0.00    +0.000 OA
ENDROOT
TORSDOF 0
REMARK  Name = ../refined-set-2016/3r88/3r88_pocket.pdb
REMARK  111 active torsions:
REMARK  status: ('A' for Active; 'I' for Inactive)
REMARK    1  A    between atoms: _1  and  _3
REMARK    2  A    between atoms: _3  and  _4
REMARK    3  A    between atoms: _3  and  _6
REMARK    4  A    between atoms: _6  and  _7
REMARK    5  A    between atoms: _7  and  _8
REMARK    6  A    between atoms: _10  and  _12
REMARK    7  A    between atoms: _12  and  _13
REMARK    8  A    between atoms: _12  and  _15
REMARK    9  A    between atoms: _15  and  _16
REMARK   10  A    between atoms: _16  and  _17
REMARK   11  A    between atoms: _19  and  _21
REMARK   12  A    between atoms: _21  and  _22
REMARK   13  A    between atoms: _21  and  _24
REMARK   14  A    between atoms: _24  and  _25
REMARK   15  A    between atoms: _25  and  _26
REMARK   16  A    between atoms: _28  and  _30
REMARK   17  A    between atoms: _30  and  _31
REMARK   18  A    between atoms: _34  and  _36
REMARK   19  A    between atoms: _36  and  _37
REMARK   20  A    between atoms: _36  and  _39
REMARK   21  A    between atoms: _39  and  _40
REMARK   22  A    between atoms: _45  and  _47
REMARK   23  A    between atoms: _47  and  _48
REMARK   24  A    between atoms: _50  and  _52
REMARK   25  A    between atoms: _52  and  _53
REMARK   26  A    between atoms: _52  and  _55
REMARK   27  A    between atoms: _55  and  _56
REMARK   28  A    between atoms: _61  and  _63
REMARK   29  A    between atoms: _63  and  _64
REMARK   30  A    between atoms: _63  and  _66
REMARK   31  A    between atoms: _66  and  _67
REMARK   32  A    between atoms: _67  and  _68
REMARK   33  A    between atoms: _68  and  _69
REMARK   34  A    between atoms: _78  and  _80
REMARK   35  A    between atoms: _80  and  _81
REMARK   36  A    between atoms: _84  and  _86
REMARK   37  A    between atoms: _86  and  _87
REMARK   38  A    between atoms: _90  and  _92
REMARK   39  A    between atoms: _92  and  _93
REMARK   40  A    between atoms: _92  and  _95
REMARK   41  A    between atoms: _95  and  _96
REMARK   42  A    between atoms: _102  and  _104
REMARK   43  A    between atoms: _104  and  _105
REMARK   44  A    between atoms: _109  and  _110
REMARK   45  A    between atoms: _115  and  _117
REMARK   46  A    between atoms: _117  and  _118
REMARK   47  A    between atoms: _117  and  _120
REMARK   48  A    between atoms: _120  and  _121
REMARK   49  A    between atoms: _121  and  _122
REMARK   50  A    between atoms: _122  and  _123
REMARK   51  A    between atoms: _132  and  _134
REMARK   52  A    between atoms: _134  and  _135
REMARK   53  A    between atoms: _134  and  _137
REMARK   54  A    between atoms: _137  and  _138
REMARK   55  A    between atoms: _144  and  _146
REMARK   56  A    between atoms: _146  and  _147
REMARK   57  A    between atoms: _146  and  _149
REMARK   58  A    between atoms: _149  and  _150
REMARK   59  A    between atoms: _156  and  _157
REMARK   60  A    between atoms: _162  and  _164
REMARK   61  A    between atoms: _164  and  _165
REMARK   62  A    between atoms: _164  and  _167
REMARK   63  A    between atoms: _167  and  _168
REMARK   64  A    between atoms: _170  and  _172
REMARK   65  A    between atoms: _172  and  _173
REMARK   66  A    between atoms: _172  and  _175
REMARK   67  A    between atoms: _175  and  _176
REMARK   68  A    between atoms: _181  and  _182
REMARK   69  A    between atoms: _184  and  _186
REMARK   70  A    between atoms: _186  and  _187
REMARK   71  A    between atoms: _186  and  _189
REMARK   72  A    between atoms: _189  and  _190
REMARK   73  A    between atoms: _190  and  _191
REMARK   74  A    between atoms: _191  and  _192
REMARK   75  A    between atoms: _201  and  _203
REMARK   76  A    between atoms: _203  and  _204
REMARK   77  A    between atoms: _203  and  _206
REMARK   78  A    between atoms: _206  and  _207
REMARK   79  A    between atoms: _212  and  _214
REMARK   80  A    between atoms: _214  and  _215
REMARK   81  A    between atoms: _218  and  _220
REMARK   82  A    between atoms: _220  and  _221
REMARK   83  A    between atoms: _224  and  _226
REMARK   84  A    between atoms: _226  and  _227
REMARK   85  A    between atoms: _230  and  _232
REMARK   86  A    between atoms: _232  and  _233
REMARK   87  A    between atoms: _232  and  _235
REMARK   88  A    between atoms: _235  and  _236
REMARK   89  A    between atoms: _236  and  _237
REMARK   90  A    between atoms: _237  and  _238
REMARK   91  A    between atoms: _247  and  _249
REMARK   92  A    between atoms: _249  and  _250
REMARK   93  A    between atoms: _249  and  _252
REMARK   94  A    between atoms: _252  and  _253
REMARK   95  A    between atoms: _253  and  _254
REMARK   96  A    between atoms: _254  and  _255
REMARK   97  A    between atoms: _264  and  _266
REMARK   98  A    between atoms: _266  and  _267
REMARK   99  A    between atoms: _266  and  _269
REMARK  100  A    between atoms: _269  and  _270
REMARK  101  A    between atoms: _276  and  _278
REMARK  102  A    between atoms: _278  and  _279
REMARK  103  A    between atoms: _278  and  _281
REMARK  104  A    between atoms: _281  and  _282
REMARK  105  A    between atoms: _285  and  _287
REMARK  106  A    between atoms: _287  and  _288
REMARK  107  A    between atoms: _290  and  _292
REMARK  108  A    between atoms: _292  and  _293
REMARK  109  A    between atoms: _292  and  _295
REMARK  110  A    between atoms: _295  and  _296
REMARK  111  A    between atoms: _300  and  _301
REMARK                            x       y       z     vdW  Elec       q    Type
REMARK                         _______ _______ _______ _____ _____    ______ ____
ROOT
ATOM      1  O   HOH     1     -10.036 -32.694   7.856  0.00  0.00    +0.000 OA
ENDROOT
TORSDOF 0
REMARK  Name = ../refined-set-2016/3r88/3r88_pocket.pdb
REMARK  111 active torsions:
REMARK  status: ('A' for Active; 'I' for Inactive)
REMARK    1  A    between atoms: _1  and  _3
REMARK    2  A    between atoms: _3  and  _4
REMARK    3  A    between atoms: _3  and  _6
REMARK    4  A    between atoms: _6  and  _7
REMARK    5  A    between atoms: _7  and  _8
REMARK    6  A    between atoms: _10  and  _12
REMARK    7  A    between atoms: _12  and  _13
REMARK    8  A    between atoms: _12  and  _15
REMARK    9  A    between atoms: _15  and  _16
REMARK   10  A    between atoms: _16  and  _17
REMARK   11  A    between atoms: _19  and  _21
REMARK   12  A    between atoms: _21  and  _22
REMARK   13  A    between atoms: _21  and  _24
REMARK   14  A    between atoms: _24  and  _25
REMARK   15  A    between atoms: _25  and  _26
REMARK   16  A    between atoms: _28  and  _30
REMARK   17  A    between atoms: _30  and  _31
REMARK   18  A    between atoms: _34  and  _36
REMARK   19  A    between atoms: _36  and  _37
REMARK   20  A    between atoms: _36  and  _39
REMARK   21  A    between atoms: _39  and  _40
REMARK   22  A    between atoms: _45  and  _47
REMARK   23  A    between atoms: _47  and  _48
REMARK   24  A    between atoms: _50  and  _52
REMARK   25  A    between atoms: _52  and  _53
REMARK   26  A    between atoms: _52  and  _55
REMARK   27  A    between atoms: _55  and  _56
REMARK   28  A    between atoms: _61  and  _63
REMARK   29  A    between atoms: _63  and  _64
REMARK   30  A    between atoms: _63  and  _66
REMARK   31  A    between atoms: _66  and  _67
REMARK   32  A    between atoms: _67  and  _68
REMARK   33  A    between atoms: _68  and  _69
REMARK   34  A    between atoms: _78  and  _80
REMARK   35  A    between atoms: _80  and  _81
REMARK   36  A    between atoms: _84  and  _86
REMARK   37  A    between atoms: _86  and  _87
REMARK   38  A    between atoms: _90  and  _92
REMARK   39  A    between atoms: _92  and  _93
REMARK   40  A    between atoms: _92  and  _95
REMARK   41  A    between atoms: _95  and  _96
REMARK   42  A    between atoms: _102  and  _104
REMARK   43  A    between atoms: _104  and  _105
REMARK   44  A    between atoms: _109  and  _110
REMARK   45  A    between atoms: _115  and  _117
REMARK   46  A    between atoms: _117  and  _118
REMARK   47  A    between atoms: _117  and  _120
REMARK   48  A    between atoms: _120  and  _121
REMARK   49  A    between atoms: _121  and  _122
REMARK   50  A    between atoms: _122  and  _123
REMARK   51  A    between atoms: _132  and  _134
REMARK   52  A    between atoms: _134  and  _135
REMARK   53  A    between atoms: _134  and  _137
REMARK   54  A    between atoms: _137  and  _138
REMARK   55  A    between atoms: _144  and  _146
REMARK   56  A    between atoms: _146  and  _147
REMARK   57  A    between atoms: _146  and  _149
REMARK   58  A    between atoms: _149  and  _150
REMARK   59  A    between atoms: _156  and  _157
REMARK   60  A    between atoms: _162  and  _164
REMARK   61  A    between atoms: _164  and  _165
REMARK   62  A    between atoms: _164  and  _167
REMARK   63  A    between atoms: _167  and  _168
REMARK   64  A    between atoms: _170  and  _172
REMARK   65  A    between atoms: _172  and  _173
REMARK   66  A    between atoms: _172  and  _175
REMARK   67  A    between atoms: _175  and  _176
REMARK   68  A    between atoms: _181  and  _182
REMARK   69  A    between atoms: _184  and  _186
REMARK   70  A    between atoms: _186  and  _187
REMARK   71  A    between atoms: _186  and  _189
REMARK   72  A    between atoms: _189  and  _190
REMARK   73  A    between atoms: _190  and  _191
REMARK   74  A    between atoms: _191  and  _192
REMARK   75  A    between atoms: _201  and  _203
REMARK   76  A    between atoms: _203  and  _204
REMARK   77  A    between atoms: _203  and  _206
REMARK   78  A    between atoms: _206  and  _207
REMARK   79  A    between atoms: _212  and  _214
REMARK   80  A    between atoms: _214  and  _215
REMARK   81  A    between atoms: _218  and  _220
REMARK   82  A    between atoms: _220  and  _221
REMARK   83  A    between atoms: _224  and  _226
REMARK   84  A    between atoms: _226  and  _227
REMARK   85  A    between atoms: _230  and  _232
REMARK   86  A    between atoms: _232  and  _233
REMARK   87  A    between atoms: _232  and  _235
REMARK   88  A    between atoms: _235  and  _236
REMARK   89  A    between atoms: _236  and  _237
REMARK   90  A    between atoms: _237  and  _238
REMARK   91  A    between atoms: _247  and  _249
REMARK   92  A    between atoms: _249  and  _250
REMARK   93  A    between atoms: _249  and  _252
REMARK   94  A    between atoms: _252  and  _253
REMARK   95  A    between atoms: _253  and  _254
REMARK   96  A    between atoms: _254  and  _255
REMARK   97  A    between atoms: _264  and  _266
REMARK   98  A    between atoms: _266  and  _267
REMARK   99  A    between atoms: _266  and  _269
REMARK  100  A    between atoms: _269  and  _270
REMARK  101  A    between atoms: _276  and  _278
REMARK  102  A    between atoms: _278  and  _279
REMARK  103  A    between atoms: _278  and  _281
REMARK  104  A    between atoms: _281  and  _282
REMARK  105  A    between atoms: _285  and  _287
REMARK  106  A    between atoms: _287  and  _288
REMARK  107  A    between atoms: _290  and  _292
REMARK  108  A    between atoms: _292  and  _293
REMARK  109  A    between atoms: _292  and  _295
REMARK  110  A    between atoms: _295  and  _296
REMARK  111  A    between atoms: _300  and  _301
REMARK                            x       y       z     vdW  Elec       q    Type
REMARK                         _______ _______ _______ _____ _____    ______ ____
ROOT
ATOM      1  O   HOH     1     -13.431 -31.659  11.291  0.00  0.00    +0.000 OA
ENDROOT
TORSDOF 0
REMARK  Name = ../refined-set-2016/3r88/3r88_pocket.pdb
REMARK  111 active torsions:
REMARK  status: ('A' for Active; 'I' for Inactive)
REMARK    1  A    between atoms: _1  and  _3
REMARK    2  A    between atoms: _3  and  _4
REMARK    3  A    between atoms: _3  and  _6
REMARK    4  A    between atoms: _6  and  _7
REMARK    5  A    between atoms: _7  and  _8
REMARK    6  A    between atoms: _10  and  _12
REMARK    7  A    between atoms: _12  and  _13
REMARK    8  A    between atoms: _12  and  _15
REMARK    9  A    between atoms: _15  and  _16
REMARK   10  A    between atoms: _16  and  _17
REMARK   11  A    between atoms: _19  and  _21
REMARK   12  A    between atoms: _21  and  _22
REMARK   13  A    between atoms: _21  and  _24
REMARK   14  A    between atoms: _24  and  _25
REMARK   15  A    between atoms: _25  and  _26
REMARK   16  A    between atoms: _28  and  _30
REMARK   17  A    between atoms: _30  and  _31
REMARK   18  A    between atoms: _34  and  _36
REMARK   19  A    between atoms: _36  and  _37
REMARK   20  A    between atoms: _36  and  _39
REMARK   21  A    between atoms: _39  and  _40
REMARK   22  A    between atoms: _45  and  _47
REMARK   23  A    between atoms: _47  and  _48
REMARK   24  A    between atoms: _50  and  _52
REMARK   25  A    between atoms: _52  and  _53
REMARK   26  A    between atoms: _52  and  _55
REMARK   27  A    between atoms: _55  and  _56
REMARK   28  A    between atoms: _61  and  _63
REMARK   29  A    between atoms: _63  and  _64
REMARK   30  A    between atoms: _63  and  _66
REMARK   31  A    between atoms: _66  and  _67
REMARK   32  A    between atoms: _67  and  _68
REMARK   33  A    between atoms: _68  and  _69
REMARK   34  A    between atoms: _78  and  _80
REMARK   35  A    between atoms: _80  and  _81
REMARK   36  A    between atoms: _84  and  _86
REMARK   37  A    between atoms: _86  and  _87
REMARK   38  A    between atoms: _90  and  _92
REMARK   39  A    between atoms: _92  and  _93
REMARK   40  A    between atoms: _92  and  _95
REMARK   41  A    between atoms: _95  and  _96
REMARK   42  A    between atoms: _102  and  _104
REMARK   43  A    between atoms: _104  and  _105
REMARK   44  A    between atoms: _109  and  _110
REMARK   45  A    between atoms: _115  and  _117
REMARK   46  A    between atoms: _117  and  _118
REMARK   47  A    between atoms: _117  and  _120
REMARK   48  A    between atoms: _120  and  _121
REMARK   49  A    between atoms: _121  and  _122
REMARK   50  A    between atoms: _122  and  _123
REMARK   51  A    between atoms: _132  and  _134
REMARK   52  A    between atoms: _134  and  _135
REMARK   53  A    between atoms: _134  and  _137
REMARK   54  A    between atoms: _137  and  _138
REMARK   55  A    between atoms: _144  and  _146
REMARK   56  A    between atoms: _146  and  _147
REMARK   57  A    between atoms: _146  and  _149
REMARK   58  A    between atoms: _149  and  _150
REMARK   59  A    between atoms: _156  and  _157
REMARK   60  A    between atoms: _162  and  _164
REMARK   61  A    between atoms: _164  and  _165
REMARK   62  A    between atoms: _164  and  _167
REMARK   63  A    between atoms: _167  and  _168
REMARK   64  A    between atoms: _170  and  _172
REMARK   65  A    between atoms: _172  and  _173
REMARK   66  A    between atoms: _172  and  _175
REMARK   67  A    between atoms: _175  and  _176
REMARK   68  A    between atoms: _181  and  _182
REMARK   69  A    between atoms: _184  and  _186
REMARK   70  A    between atoms: _186  and  _187
REMARK   71  A    between atoms: _186  and  _189
REMARK   72  A    between atoms: _189  and  _190
REMARK   73  A    between atoms: _190  and  _191
REMARK   74  A    between atoms: _191  and  _192
REMARK   75  A    between atoms: _201  and  _203
REMARK   76  A    between atoms: _203  and  _204
REMARK   77  A    between atoms: _203  and  _206
REMARK   78  A    between atoms: _206  and  _207
REMARK   79  A    between atoms: _212  and  _214
REMARK   80  A    between atoms: _214  and  _215
REMARK   81  A    between atoms: _218  and  _220
REMARK   82  A    between atoms: _220  and  _221
REMARK   83  A    between atoms: _224  and  _226
REMARK   84  A    between atoms: _226  and  _227
REMARK   85  A    between atoms: _230  and  _232
REMARK   86  A    between atoms: _232  and  _233
REMARK   87  A    between atoms: _232  and  _235
REMARK   88  A    between atoms: _235  and  _236
REMARK   89  A    between atoms: _236  and  _237
REMARK   90  A    between atoms: _237  and  _238
REMARK   91  A    between atoms: _247  and  _249
REMARK   92  A    between atoms: _249  and  _250
REMARK   93  A    between atoms: _249  and  _252
REMARK   94  A    between atoms: _252  and  _253
REMARK   95  A    between atoms: _253  and  _254
REMARK   96  A    between atoms: _254  and  _255
REMARK   97  A    between atoms: _264  and  _266
REMARK   98  A    between atoms: _266  and  _267
REMARK   99  A    between atoms: _266  and  _269
REMARK  100  A    between atoms: _269  and  _270
REMARK  101  A    between atoms: _276  and  _278
REMARK  102  A    between atoms: _278  and  _279
REMARK  103  A    between atoms: _278  and  _281
REMARK  104  A    between atoms: _281  and  _282
REMARK  105  A    between atoms: _285  and  _287
REMARK  106  A    between atoms: _287  and  _288
REMARK  107  A    between atoms: _290  and  _292
REMARK  108  A    between atoms: _292  and  _293
REMARK  109  A    between atoms: _292  and  _295
REMARK  110  A    between atoms: _295  and  _296
REMARK  111  A    between atoms: _300  and  _301
REMARK                            x       y       z     vdW  Elec       q    Type
REMARK                         _______ _______ _______ _____ _____    ______ ____
ROOT
ATOM      1  O   HOH     1      -9.838 -35.082  13.633  0.00  0.00    +0.000 OA
ENDROOT
TORSDOF 0
REMARK  Name = ../refined-set-2016/3r88/3r88_pocket.pdb
REMARK  111 active torsions:
REMARK  status: ('A' for Active; 'I' for Inactive)
REMARK    1  A    between atoms: _1  and  _3
REMARK    2  A    between atoms: _3  and  _4
REMARK    3  A    between atoms: _3  and  _6
REMARK    4  A    between atoms: _6  and  _7
REMARK    5  A    between atoms: _7  and  _8
REMARK    6  A    between atoms: _10  and  _12
REMARK    7  A    between atoms: _12  and  _13
REMARK    8  A    between atoms: _12  and  _15
REMARK    9  A    between atoms: _15  and  _16
REMARK   10  A    between atoms: _16  and  _17
REMARK   11  A    between atoms: _19  and  _21
REMARK   12  A    between atoms: _21  and  _22
REMARK   13  A    between atoms: _21  and  _24
REMARK   14  A    between atoms: _24  and  _25
REMARK   15  A    between atoms: _25  and  _26
REMARK   16  A    between atoms: _28  and  _30
REMARK   17  A    between atoms: _30  and  _31
REMARK   18  A    between atoms: _34  and  _36
REMARK   19  A    between atoms: _36  and  _37
REMARK   20  A    between atoms: _36  and  _39
REMARK   21  A    between atoms: _39  and  _40
REMARK   22  A    between atoms: _45  and  _47
REMARK   23  A    between atoms: _47  and  _48
REMARK   24  A    between atoms: _50  and  _52
REMARK   25  A    between atoms: _52  and  _53
REMARK   26  A    between atoms: _52  and  _55
REMARK   27  A    between atoms: _55  and  _56
REMARK   28  A    between atoms: _61  and  _63
REMARK   29  A    between atoms: _63  and  _64
REMARK   30  A    between atoms: _63  and  _66
REMARK   31  A    between atoms: _66  and  _67
REMARK   32  A    between atoms: _67  and  _68
REMARK   33  A    between atoms: _68  and  _69
REMARK   34  A    between atoms: _78  and  _80
REMARK   35  A    between atoms: _80  and  _81
REMARK   36  A    between atoms: _84  and  _86
REMARK   37  A    between atoms: _86  and  _87
REMARK   38  A    between atoms: _90  and  _92
REMARK   39  A    between atoms: _92  and  _93
REMARK   40  A    between atoms: _92  and  _95
REMARK   41  A    between atoms: _95  and  _96
REMARK   42  A    between atoms: _102  and  _104
REMARK   43  A    between atoms: _104  and  _105
REMARK   44  A    between atoms: _109  and  _110
REMARK   45  A    between atoms: _115  and  _117
REMARK   46  A    between atoms: _117  and  _118
REMARK   47  A    between atoms: _117  and  _120
REMARK   48  A    between atoms: _120  and  _121
REMARK   49  A    between atoms: _121  and  _122
REMARK   50  A    between atoms: _122  and  _123
REMARK   51  A    between atoms: _132  and  _134
REMARK   52  A    between atoms: _134  and  _135
REMARK   53  A    between atoms: _134  and  _137
REMARK   54  A    between atoms: _137  and  _138
REMARK   55  A    between atoms: _144  and  _146
REMARK   56  A    between atoms: _146  and  _147
REMARK   57  A    between atoms: _146  and  _149
REMARK   58  A    between atoms: _149  and  _150
REMARK   59  A    between atoms: _156  and  _157
REMARK   60  A    between atoms: _162  and  _164
REMARK   61  A    between atoms: _164  and  _165
REMARK   62  A    between atoms: _164  and  _167
REMARK   63  A    between atoms: _167  and  _168
REMARK   64  A    between atoms: _170  and  _172
REMARK   65  A    between atoms: _172  and  _173
REMARK   66  A    between atoms: _172  and  _175
REMARK   67  A    between atoms: _175  and  _176
REMARK   68  A    between atoms: _181  and  _182
REMARK   69  A    between atoms: _184  and  _186
REMARK   70  A    between atoms: _186  and  _187
REMARK   71  A    between atoms: _186  and  _189
REMARK   72  A    between atoms: _189  and  _190
REMARK   73  A    between atoms: _190  and  _191
REMARK   74  A    between atoms: _191  and  _192
REMARK   75  A    between atoms: _201  and  _203
REMARK   76  A    between atoms: _203  and  _204
REMARK   77  A    between atoms: _203  and  _206
REMARK   78  A    between atoms: _206  and  _207
REMARK   79  A    between atoms: _212  and  _214
REMARK   80  A    between atoms: _214  and  _215
REMARK   81  A    between atoms: _218  and  _220
REMARK   82  A    between atoms: _220  and  _221
REMARK   83  A    between atoms: _224  and  _226
REMARK   84  A    between atoms: _226  and  _227
REMARK   85  A    between atoms: _230  and  _232
REMARK   86  A    between atoms: _232  and  _233
REMARK   87  A    between atoms: _232  and  _235
REMARK   88  A    between atoms: _235  and  _236
REMARK   89  A    between atoms: _236  and  _237
REMARK   90  A    between atoms: _237  and  _238
REMARK   91  A    between atoms: _247  and  _249
REMARK   92  A    between atoms: _249  and  _250
REMARK   93  A    between atoms: _249  and  _252
REMARK   94  A    between atoms: _252  and  _253
REMARK   95  A    between atoms: _253  and  _254
REMARK   96  A    between atoms: _254  and  _255
REMARK   97  A    between atoms: _264  and  _266
REMARK   98  A    between atoms: _266  and  _267
REMARK   99  A    between atoms: _266  and  _269
REMARK  100  A    between atoms: _269  and  _270
REMARK  101  A    between atoms: _276  and  _278
REMARK  102  A    between atoms: _278  and  _279
REMARK  103  A    between atoms: _278  and  _281
REMARK  104  A    between atoms: _281  and  _282
REMARK  105  A    between atoms: _285  and  _287
REMARK  106  A    between atoms: _287  and  _288
REMARK  107  A    between atoms: _290  and  _292
REMARK  108  A    between atoms: _292  and  _293
REMARK  109  A    between atoms: _292  and  _295
REMARK  110  A    between atoms: _295  and  _296
REMARK  111  A    between atoms: _300  and  _301
REMARK                            x       y       z     vdW  Elec       q    Type
REMARK                         _______ _______ _______ _____ _____    ______ ____
ROOT
ATOM      1  O   HOH     1      -1.831 -38.432  11.047  0.00  0.00    +0.000 OA
ENDROOT
TORSDOF 0
REMARK  Name = ../refined-set-2016/3r88/3r88_pocket.pdb
REMARK  111 active torsions:
REMARK  status: ('A' for Active; 'I' for Inactive)
REMARK    1  A    between atoms: _1  and  _3
REMARK    2  A    between atoms: _3  and  _4
REMARK    3  A    between atoms: _3  and  _6
REMARK    4  A    between atoms: _6  and  _7
REMARK    5  A    between atoms: _7  and  _8
REMARK    6  A    between atoms: _10  and  _12
REMARK    7  A    between atoms: _12  and  _13
REMARK    8  A    between atoms: _12  and  _15
REMARK    9  A    between atoms: _15  and  _16
REMARK   10  A    between atoms: _16  and  _17
REMARK   11  A    between atoms: _19  and  _21
REMARK   12  A    between atoms: _21  and  _22
REMARK   13  A    between atoms: _21  and  _24
REMARK   14  A    between atoms: _24  and  _25
REMARK   15  A    between atoms: _25  and  _26
REMARK   16  A    between atoms: _28  and  _30
REMARK   17  A    between atoms: _30  and  _31
REMARK   18  A    between atoms: _34  and  _36
REMARK   19  A    between atoms: _36  and  _37
REMARK   20  A    between atoms: _36  and  _39
REMARK   21  A    between atoms: _39  and  _40
REMARK   22  A    between atoms: _45  and  _47
REMARK   23  A    between atoms: _47  and  _48
REMARK   24  A    between atoms: _50  and  _52
REMARK   25  A    between atoms: _52  and  _53
REMARK   26  A    between atoms: _52  and  _55
REMARK   27  A    between atoms: _55  and  _56
REMARK   28  A    between atoms: _61  and  _63
REMARK   29  A    between atoms: _63  and  _64
REMARK   30  A    between atoms: _63  and  _66
REMARK   31  A    between atoms: _66  and  _67
REMARK   32  A    between atoms: _67  and  _68
REMARK   33  A    between atoms: _68  and  _69
REMARK   34  A    between atoms: _78  and  _80
REMARK   35  A    between atoms: _80  and  _81
REMARK   36  A    between atoms: _84  and  _86
REMARK   37  A    between atoms: _86  and  _87
REMARK   38  A    between atoms: _90  and  _92
REMARK   39  A    between atoms: _92  and  _93
REMARK   40  A    between atoms: _92  and  _95
REMARK   41  A    between atoms: _95  and  _96
REMARK   42  A    between atoms: _102  and  _104
REMARK   43  A    between atoms: _104  and  _105
REMARK   44  A    between atoms: _109  and  _110
REMARK   45  A    between atoms: _115  and  _117
REMARK   46  A    between atoms: _117  and  _118
REMARK   47  A    between atoms: _117  and  _120
REMARK   48  A    between atoms: _120  and  _121
REMARK   49  A    between atoms: _121  and  _122
REMARK   50  A    between atoms: _122  and  _123
REMARK   51  A    between atoms: _132  and  _134
REMARK   52  A    between atoms: _134  and  _135
REMARK   53  A    between atoms: _134  and  _137
REMARK   54  A    between atoms: _137  and  _138
REMARK   55  A    between atoms: _144  and  _146
REMARK   56  A    between atoms: _146  and  _147
REMARK   57  A    between atoms: _146  and  _149
REMARK   58  A    between atoms: _149  and  _150
REMARK   59  A    between atoms: _156  and  _157
REMARK   60  A    between atoms: _162  and  _164
REMARK   61  A    between atoms: _164  and  _165
REMARK   62  A    between atoms: _164  and  _167
REMARK   63  A    between atoms: _167  and  _168
REMARK   64  A    between atoms: _170  and  _172
REMARK   65  A    between atoms: _172  and  _173
REMARK   66  A    between atoms: _172  and  _175
REMARK   67  A    between atoms: _175  and  _176
REMARK   68  A    between atoms: _181  and  _182
REMARK   69  A    between atoms: _184  and  _186
REMARK   70  A    between atoms: _186  and  _187
REMARK   71  A    between atoms: _186  and  _189
REMARK   72  A    between atoms: _189  and  _190
REMARK   73  A    between atoms: _190  and  _191
REMARK   74  A    between atoms: _191  and  _192
REMARK   75  A    between atoms: _201  and  _203
REMARK   76  A    between atoms: _203  and  _204
REMARK   77  A    between atoms: _203  and  _206
REMARK   78  A    between atoms: _206  and  _207
REMARK   79  A    between atoms: _212  and  _214
REMARK   80  A    between atoms: _214  and  _215
REMARK   81  A    between atoms: _218  and  _220
REMARK   82  A    between atoms: _220  and  _221
REMARK   83  A    between atoms: _224  and  _226
REMARK   84  A    between atoms: _226  and  _227
REMARK   85  A    between atoms: _230  and  _232
REMARK   86  A    between atoms: _232  and  _233
REMARK   87  A    between atoms: _232  and  _235
REMARK   88  A    between atoms: _235  and  _236
REMARK   89  A    between atoms: _236  and  _237
REMARK   90  A    between atoms: _237  and  _238
REMARK   91  A    between atoms: _247  and  _249
REMARK   92  A    between atoms: _249  and  _250
REMARK   93  A    between atoms: _249  and  _252
REMARK   94  A    between atoms: _252  and  _253
REMARK   95  A    between atoms: _253  and  _254
REMARK   96  A    between atoms: _254  and  _255
REMARK   97  A    between atoms: _264  and  _266
REMARK   98  A    between atoms: _266  and  _267
REMARK   99  A    between atoms: _266  and  _269
REMARK  100  A    between atoms: _269  and  _270
REMARK  101  A    between atoms: _276  and  _278
REMARK  102  A    between atoms: _278  and  _279
REMARK  103  A    between atoms: _278  and  _281
REMARK  104  A    between atoms: _281  and  _282
REMARK  105  A    between atoms: _285  and  _287
REMARK  106  A    between atoms: _287  and  _288
REMARK  107  A    between atoms: _290  and  _292
REMARK  108  A    between atoms: _292  and  _293
REMARK  109  A    between atoms: _292  and  _295
REMARK  110  A    between atoms: _295  and  _296
REMARK  111  A    between atoms: _300  and  _301
REMARK                            x       y       z     vdW  Elec       q    Type
REMARK                         _______ _______ _______ _____ _____    ______ ____
ROOT
ATOM      1  O   HOH     1     -11.695 -32.415  12.989  0.00  0.00    +0.000 OA
ENDROOT
TORSDOF 0
REMARK  Name = ../refined-set-2016/3r88/3r88_pocket.pdb
REMARK  111 active torsions:
REMARK  status: ('A' for Active; 'I' for Inactive)
REMARK    1  A    between atoms: _1  and  _3
REMARK    2  A    between atoms: _3  and  _4
REMARK    3  A    between atoms: _3  and  _6
REMARK    4  A    between atoms: _6  and  _7
REMARK    5  A    between atoms: _7  and  _8
REMARK    6  A    between atoms: _10  and  _12
REMARK    7  A    between atoms: _12  and  _13
REMARK    8  A    between atoms: _12  and  _15
REMARK    9  A    between atoms: _15  and  _16
REMARK   10  A    between atoms: _16  and  _17
REMARK   11  A    between atoms: _19  and  _21
REMARK   12  A    between atoms: _21  and  _22
REMARK   13  A    between atoms: _21  and  _24
REMARK   14  A    between atoms: _24  and  _25
REMARK   15  A    between atoms: _25  and  _26
REMARK   16  A    between atoms: _28  and  _30
REMARK   17  A    between atoms: _30  and  _31
REMARK   18  A    between atoms: _34  and  _36
REMARK   19  A    between atoms: _36  and  _37
REMARK   20  A    between atoms: _36  and  _39
REMARK   21  A    between atoms: _39  and  _40
REMARK   22  A    between atoms: _45  and  _47
REMARK   23  A    between atoms: _47  and  _48
REMARK   24  A    between atoms: _50  and  _52
REMARK   25  A    between atoms: _52  and  _53
REMARK   26  A    between atoms: _52  and  _55
REMARK   27  A    between atoms: _55  and  _56
REMARK   28  A    between atoms: _61  and  _63
REMARK   29  A    between atoms: _63  and  _64
REMARK   30  A    between atoms: _63  and  _66
REMARK   31  A    between atoms: _66  and  _67
REMARK   32  A    between atoms: _67  and  _68
REMARK   33  A    between atoms: _68  and  _69
REMARK   34  A    between atoms: _78  and  _80
REMARK   35  A    between atoms: _80  and  _81
REMARK   36  A    between atoms: _84  and  _86
REMARK   37  A    between atoms: _86  and  _87
REMARK   38  A    between atoms: _90  and  _92
REMARK   39  A    between atoms: _92  and  _93
REMARK   40  A    between atoms: _92  and  _95
REMARK   41  A    between atoms: _95  and  _96
REMARK   42  A    between atoms: _102  and  _104
REMARK   43  A    between atoms: _104  and  _105
REMARK   44  A    between atoms: _109  and  _110
REMARK   45  A    between atoms: _115  and  _117
REMARK   46  A    between atoms: _117  and  _118
REMARK   47  A    between atoms: _117  and  _120
REMARK   48  A    between atoms: _120  and  _121
REMARK   49  A    between atoms: _121  and  _122
REMARK   50  A    between atoms: _122  and  _123
REMARK   51  A    between atoms: _132  and  _134
REMARK   52  A    between atoms: _134  and  _135
REMARK   53  A    between atoms: _134  and  _137
REMARK   54  A    between atoms: _137  and  _138
REMARK   55  A    between atoms: _144  and  _146
REMARK   56  A    between atoms: _146  and  _147
REMARK   57  A    between atoms: _146  and  _149
REMARK   58  A    between atoms: _149  and  _150
REMARK   59  A    between atoms: _156  and  _157
REMARK   60  A    between atoms: _162  and  _164
REMARK   61  A    between atoms: _164  and  _165
REMARK   62  A    between atoms: _164  and  _167
REMARK   63  A    between atoms: _167  and  _168
REMARK   64  A    between atoms: _170  and  _172
REMARK   65  A    between atoms: _172  and  _173
REMARK   66  A    between atoms: _172  and  _175
REMARK   67  A    between atoms: _175  and  _176
REMARK   68  A    between atoms: _181  and  _182
REMARK   69  A    between atoms: _184  and  _186
REMARK   70  A    between atoms: _186  and  _187
REMARK   71  A    between atoms: _186  and  _189
REMARK   72  A    between atoms: _189  and  _190
REMARK   73  A    between atoms: _190  and  _191
REMARK   74  A    between atoms: _191  and  _192
REMARK   75  A    between atoms: _201  and  _203
REMARK   76  A    between atoms: _203  and  _204
REMARK   77  A    between atoms: _203  and  _206
REMARK   78  A    between atoms: _206  and  _207
REMARK   79  A    between atoms: _212  and  _214
REMARK   80  A    between atoms: _214  and  _215
REMARK   81  A    between atoms: _218  and  _220
REMARK   82  A    between atoms: _220  and  _221
REMARK   83  A    between atoms: _224  and  _226
REMARK   84  A    between atoms: _226  and  _227
REMARK   85  A    between atoms: _230  and  _232
REMARK   86  A    between atoms: _232  and  _233
REMARK   87  A    between atoms: _232  and  _235
REMARK   88  A    between atoms: _235  and  _236
REMARK   89  A    between atoms: _236  and  _237
REMARK   90  A    between atoms: _237  and  _238
REMARK   91  A    between atoms: _247  and  _249
REMARK   92  A    between atoms: _249  and  _250
REMARK   93  A    between atoms: _249  and  _252
REMARK   94  A    between atoms: _252  and  _253
REMARK   95  A    between atoms: _253  and  _254
REMARK   96  A    between atoms: _254  and  _255
REMARK   97  A    between atoms: _264  and  _266
REMARK   98  A    between atoms: _266  and  _267
REMARK   99  A    between atoms: _266  and  _269
REMARK  100  A    between atoms: _269  and  _270
REMARK  101  A    between atoms: _276  and  _278
REMARK  102  A    between atoms: _278  and  _279
REMARK  103  A    between atoms: _278  and  _281
REMARK  104  A    between atoms: _281  and  _282
REMARK  105  A    between atoms: _285  and  _287
REMARK  106  A    between atoms: _287  and  _288
REMARK  107  A    between atoms: _290  and  _292
REMARK  108  A    between atoms: _292  and  _293
REMARK  109  A    between atoms: _292  and  _295
REMARK  110  A    between atoms: _295  and  _296
REMARK  111  A    between atoms: _300  and  _301
REMARK                            x       y       z     vdW  Elec       q    Type
REMARK                         _______ _______ _______ _____ _____    ______ ____
ROOT
ATOM      1  O   HOH     1      -5.789 -35.234  10.436  0.00  0.00    +0.000 OA
ENDROOT
TORSDOF 0
REMARK  Name = ../refined-set-2016/3r88/3r88_pocket.pdb
REMARK  111 active torsions:
REMARK  status: ('A' for Active; 'I' for Inactive)
REMARK    1  A    between atoms: _1  and  _3
REMARK    2  A    between atoms: _3  and  _4
REMARK    3  A    between atoms: _3  and  _6
REMARK    4  A    between atoms: _6  and  _7
REMARK    5  A    between atoms: _7  and  _8
REMARK    6  A    between atoms: _10  and  _12
REMARK    7  A    between atoms: _12  and  _13
REMARK    8  A    between atoms: _12  and  _15
REMARK    9  A    between atoms: _15  and  _16
REMARK   10  A    between atoms: _16  and  _17
REMARK   11  A    between atoms: _19  and  _21
REMARK   12  A    between atoms: _21  and  _22
REMARK   13  A    between atoms: _21  and  _24
REMARK   14  A    between atoms: _24  and  _25
REMARK   15  A    between atoms: _25  and  _26
REMARK   16  A    between atoms: _28  and  _30
REMARK   17  A    between atoms: _30  and  _31
REMARK   18  A    between atoms: _34  and  _36
REMARK   19  A    between atoms: _36  and  _37
REMARK   20  A    between atoms: _36  and  _39
REMARK   21  A    between atoms: _39  and  _40
REMARK   22  A    between atoms: _45  and  _47
REMARK   23  A    between atoms: _47  and  _48
REMARK   24  A    between atoms: _50  and  _52
REMARK   25  A    between atoms: _52  and  _53
REMARK   26  A    between atoms: _52  and  _55
REMARK   27  A    between atoms: _55  and  _56
REMARK   28  A    between atoms: _61  and  _63
REMARK   29  A    between atoms: _63  and  _64
REMARK   30  A    between atoms: _63  and  _66
REMARK   31  A    between atoms: _66  and  _67
REMARK   32  A    between atoms: _67  and  _68
REMARK   33  A    between atoms: _68  and  _69
REMARK   34  A    between atoms: _78  and  _80
REMARK   35  A    between atoms: _80  and  _81
REMARK   36  A    between atoms: _84  and  _86
REMARK   37  A    between atoms: _86  and  _87
REMARK   38  A    between atoms: _90  and  _92
REMARK   39  A    between atoms: _92  and  _93
REMARK   40  A    between atoms: _92  and  _95
REMARK   41  A    between atoms: _95  and  _96
REMARK   42  A    between atoms: _102  and  _104
REMARK   43  A    between atoms: _104  and  _105
REMARK   44  A    between atoms: _109  and  _110
REMARK   45  A    between atoms: _115  and  _117
REMARK   46  A    between atoms: _117  and  _118
REMARK   47  A    between atoms: _117  and  _120
REMARK   48  A    between atoms: _120  and  _121
REMARK   49  A    between atoms: _121  and  _122
REMARK   50  A    between atoms: _122  and  _123
REMARK   51  A    between atoms: _132  and  _134
REMARK   52  A    between atoms: _134  and  _135
REMARK   53  A    between atoms: _134  and  _137
REMARK   54  A    between atoms: _137  and  _138
REMARK   55  A    between atoms: _144  and  _146
REMARK   56  A    between atoms: _146  and  _147
REMARK   57  A    between atoms: _146  and  _149
REMARK   58  A    between atoms: _149  and  _150
REMARK   59  A    between atoms: _156  and  _157
REMARK   60  A    between atoms: _162  and  _164
REMARK   61  A    between atoms: _164  and  _165
REMARK   62  A    between atoms: _164  and  _167
REMARK   63  A    between atoms: _167  and  _168
REMARK   64  A    between atoms: _170  and  _172
REMARK   65  A    between atoms: _172  and  _173
REMARK   66  A    between atoms: _172  and  _175
REMARK   67  A    between atoms: _175  and  _176
REMARK   68  A    between atoms: _181  and  _182
REMARK   69  A    between atoms: _184  and  _186
REMARK   70  A    between atoms: _186  and  _187
REMARK   71  A    between atoms: _186  and  _189
REMARK   72  A    between atoms: _189  and  _190
REMARK   73  A    between atoms: _190  and  _191
REMARK   74  A    between atoms: _191  and  _192
REMARK   75  A    between atoms: _201  and  _203
REMARK   76  A    between atoms: _203  and  _204
REMARK   77  A    between atoms: _203  and  _206
REMARK   78  A    between atoms: _206  and  _207
REMARK   79  A    between atoms: _212  and  _214
REMARK   80  A    between atoms: _214  and  _215
REMARK   81  A    between atoms: _218  and  _220
REMARK   82  A    between atoms: _220  and  _221
REMARK   83  A    between atoms: _224  and  _226
REMARK   84  A    between atoms: _226  and  _227
REMARK   85  A    between atoms: _230  and  _232
REMARK   86  A    between atoms: _232  and  _233
REMARK   87  A    between atoms: _232  and  _235
REMARK   88  A    between atoms: _235  and  _236
REMARK   89  A    between atoms: _236  and  _237
REMARK   90  A    between atoms: _237  and  _238
REMARK   91  A    between atoms: _247  and  _249
REMARK   92  A    between atoms: _249  and  _250
REMARK   93  A    between atoms: _249  and  _252
REMARK   94  A    between atoms: _252  and  _253
REMARK   95  A    between atoms: _253  and  _254
REMARK   96  A    between atoms: _254  and  _255
REMARK   97  A    between atoms: _264  and  _266
REMARK   98  A    between atoms: _266  and  _267
REMARK   99  A    between atoms: _266  and  _269
REMARK  100  A    between atoms: _269  and  _270
REMARK  101  A    between atoms: _276  and  _278
REMARK  102  A    between atoms: _278  and  _279
REMARK  103  A    between atoms: _278  and  _281
REMARK  104  A    between atoms: _281  and  _282
REMARK  105  A    between atoms: _285  and  _287
REMARK  106  A    between atoms: _287  and  _288
REMARK  107  A    between atoms: _290  and  _292
REMARK  108  A    between atoms: _292  and  _293
REMARK  109  A    between atoms: _292  and  _295
REMARK  110  A    between atoms: _295  and  _296
REMARK  111  A    between atoms: _300  and  _301
REMARK                            x       y       z     vdW  Elec       q    Type
REMARK                         _______ _______ _______ _____ _____    ______ ____
ROOT
ATOM      1  O   HOH     1      -1.231 -35.731   5.285  0.00  0.00    +0.000 OA
ENDROOT
TORSDOF 0
