REMARK  Name = ../refined-set-2016/3bex/3bex_pocket.pdb
REMARK  181 active torsions:
REMARK  status: ('A' for Active; 'I' for Inactive)
REMARK    1  A    between atoms: _1  and  _3
REMARK    2  A    between atoms: _3  and  _4
REMARK    3  A    between atoms: _3  and  _6
REMARK    4  A    between atoms: _6  and  _7
REMARK    5  A    between atoms: _10  and  _12
REMARK    6  A    between atoms: _12  and  _13
REMARK    7  A    between atoms: _12  and  _15
REMARK    8  A    between atoms: _18  and  _20
REMARK    9  A    between atoms: _20  and  _21
REMARK   10  A    between atoms: _23  and  _25
REMARK   11  A    between atoms: _25  and  _26
REMARK   12  A    between atoms: _25  and  _28
REMARK   13  A    between atoms: _28  and  _29
REMARK   14  A    between atoms: _34  and  _36
REMARK   15  A    between atoms: _36  and  _37
REMARK   16  A    between atoms: _36  and  _39
REMARK   17  A    between atoms: _39  and  _40
REMARK   18  A    between atoms: _43  and  _45
REMARK   19  A    between atoms: _45  and  _46
REMARK   20  A    between atoms: _45  and  _48
REMARK   21  A    between atoms: _48  and  _49
REMARK   22  A    between atoms: _51  and  _53
REMARK   23  A    between atoms: _53  and  _54
REMARK   24  A    between atoms: _53  and  _56
REMARK   25  A    between atoms: _59  and  _61
REMARK   26  A    between atoms: _61  and  _62
REMARK   27  A    between atoms: _61  and  _64
REMARK   28  A    between atoms: _68  and  _69
REMARK   29  A    between atoms: _74  and  _76
REMARK   30  A    between atoms: _76  and  _77
REMARK   31  A    between atoms: _76  and  _79
REMARK   32  A    between atoms: _82  and  _84
REMARK   33  A    between atoms: _84  and  _85
REMARK   34  A    between atoms: _84  and  _87
REMARK   35  A    between atoms: _87  and  _88
REMARK   36  A    between atoms: _94  and  _95
REMARK   37  A    between atoms: _100  and  _102
REMARK   38  A    between atoms: _102  and  _103
REMARK   39  A    between atoms: _102  and  _105
REMARK   40  A    between atoms: _105  and  _106
REMARK   41  A    between atoms: _108  and  _110
REMARK   42  A    between atoms: _110  and  _111
REMARK   43  A    between atoms: _110  and  _113
REMARK   44  A    between atoms: _113  and  _114
REMARK   45  A    between atoms: _114  and  _115
REMARK   46  A    between atoms: _118  and  _120
REMARK   47  A    between atoms: _120  and  _121
REMARK   48  A    between atoms: _120  and  _123
REMARK   49  A    between atoms: _126  and  _128
REMARK   50  A    between atoms: _128  and  _129
REMARK   51  A    between atoms: _131  and  _133
REMARK   52  A    between atoms: _133  and  _134
REMARK   53  A    between atoms: _137  and  _139
REMARK   54  A    between atoms: _139  and  _140
REMARK   55  A    between atoms: _139  and  _142
REMARK   56  A    between atoms: _142  and  _143
REMARK   57  A    between atoms: _146  and  _148
REMARK   58  A    between atoms: _148  and  _149
REMARK   59  A    between atoms: _148  and  _151
REMARK   60  A    between atoms: _151  and  _152
REMARK   61  A    between atoms: _152  and  _153
REMARK   62  A    between atoms: _153  and  _154
REMARK   63  A    between atoms: _163  and  _165
REMARK   64  A    between atoms: _165  and  _166
REMARK   65  A    between atoms: _165  and  _168
REMARK   66  A    between atoms: _171  and  _173
REMARK   67  A    between atoms: _173  and  _174
REMARK   68  A    between atoms: _173  and  _176
REMARK   69  A    between atoms: _176  and  _177
REMARK   70  A    between atoms: _182  and  _184
REMARK   71  A    between atoms: _184  and  _185
REMARK   72  A    between atoms: _184  and  _187
REMARK   73  A    between atoms: _187  and  _188
REMARK   74  A    between atoms: _191  and  _193
REMARK   75  A    between atoms: _193  and  _194
REMARK   76  A    between atoms: _196  and  _198
REMARK   77  A    between atoms: _198  and  _199
REMARK   78  A    between atoms: _198  and  _201
REMARK   79  A    between atoms: _201  and  _202
REMARK   80  A    between atoms: _205  and  _207
REMARK   81  A    between atoms: _207  and  _208
REMARK   82  A    between atoms: _211  and  _213
REMARK   83  A    between atoms: _213  and  _214
REMARK   84  A    between atoms: _213  and  _216
REMARK   85  A    between atoms: _216  and  _217
REMARK   86  A    between atoms: _220  and  _222
REMARK   87  A    between atoms: _222  and  _223
REMARK   88  A    between atoms: _222  and  _225
REMARK   89  A    between atoms: _225  and  _226
REMARK   90  A    between atoms: _229  and  _231
REMARK   91  A    between atoms: _231  and  _232
REMARK   92  A    between atoms: _231  and  _234
REMARK   93  A    between atoms: _237  and  _239
REMARK   94  A    between atoms: _239  and  _240
REMARK   95  A    between atoms: _239  and  _242
REMARK   96  A    between atoms: _242  and  _243
REMARK   97  A    between atoms: _246  and  _248
REMARK   98  A    between atoms: _248  and  _249
REMARK   99  A    between atoms: _248  and  _251
REMARK  100  A    between atoms: _251  and  _252
REMARK  101  A    between atoms: _257  and  _258
REMARK  102  A    between atoms: _260  and  _262
REMARK  103  A    between atoms: _262  and  _263
REMARK  104  A    between atoms: _265  and  _267
REMARK  105  A    between atoms: _267  and  _268
REMARK  106  A    between atoms: _271  and  _273
REMARK  107  A    between atoms: _273  and  _274
REMARK  108  A    between atoms: _273  and  _276
REMARK  109  A    between atoms: _276  and  _277
REMARK  110  A    between atoms: _280  and  _282
REMARK  111  A    between atoms: _282  and  _283
REMARK  112  A    between atoms: _282  and  _285
REMARK  113  A    between atoms: _285  and  _286
REMARK  114  A    between atoms: _289  and  _291
REMARK  115  A    between atoms: _291  and  _292
REMARK  116  A    between atoms: _291  and  _294
REMARK  117  A    between atoms: _294  and  _295
REMARK  118  A    between atoms: _295  and  _296
REMARK  119  A    between atoms: _298  and  _300
REMARK  120  A    between atoms: _300  and  _301
REMARK  121  A    between atoms: _300  and  _303
REMARK  122  A    between atoms: _303  and  _304
REMARK  123  A    between atoms: _307  and  _309
REMARK  124  A    between atoms: _309  and  _310
REMARK  125  A    between atoms: _309  and  _312
REMARK  126  A    between atoms: _312  and  _313
REMARK  127  A    between atoms: _316  and  _318
REMARK  128  A    between atoms: _318  and  _319
REMARK  129  A    between atoms: _321  and  _323
REMARK  130  A    between atoms: _323  and  _324
REMARK  131  A    between atoms: _323  and  _326
REMARK  132  A    between atoms: _326  and  _327
REMARK  133  A    between atoms: _330  and  _332
REMARK  134  A    between atoms: _332  and  _333
REMARK  135  A    between atoms: _336  and  _338
REMARK  136  A    between atoms: _338  and  _339
REMARK  137  A    between atoms: _338  and  _341
REMARK  138  A    between atoms: _341  and  _342
REMARK  139  A    between atoms: _342  and  _343
REMARK  140  A    between atoms: _343  and  _344
REMARK  141  A    between atoms: _344  and  _345
REMARK  142  A    between atoms: _349  and  _351
REMARK  143  A    between atoms: _351  and  _352
REMARK  144  A    between atoms: _351  and  _354
REMARK  145  A    between atoms: _354  and  _355
REMARK  146  A    between atoms: _359  and  _360
REMARK  147  A    between atoms: _365  and  _367
REMARK  148  A    between atoms: _367  and  _368
REMARK  149  A    between atoms: _370  and  _372
REMARK  150  A    between atoms: _372  and  _373
REMARK  151  A    between atoms: _372  and  _375
REMARK  152  A    between atoms: _375  and  _376
REMARK  153  A    between atoms: _376  and  _377
REMARK  154  A    between atoms: _377  and  _378
REMARK  155  A    between atoms: _378  and  _379
REMARK  156  A    between atoms: _383  and  _385
REMARK  157  A    between atoms: _385  and  _386
REMARK  158  A    between atoms: _385  and  _388
REMARK  159  A    between atoms: _388  and  _389
REMARK  160  A    between atoms: _392  and  _394
REMARK  161  A    between atoms: _394  and  _395
REMARK  162  A    between atoms: _394  and  _397
REMARK  163  A    between atoms: _397  and  _398
REMARK  164  A    between atoms: _401  and  _403
REMARK  165  A    between atoms: _403  and  _404
REMARK  166  A    between atoms: _403  and  _406
REMARK  167  A    between atoms: _406  and  _407
REMARK  168  A    between atoms: _407  and  _408
REMARK  169  A    between atoms: _411  and  _413
REMARK  170  A    between atoms: _413  and  _414
REMARK  171  A    between atoms: _413  and  _416
REMARK  172  A    between atoms: _416  and  _417
REMARK  173  A    between atoms: _417  and  _418
REMARK  174  A    between atoms: _421  and  _423
REMARK  175  A    between atoms: _423  and  _424
REMARK  176  A    between atoms: _423  and  _426
REMARK  177  A    between atoms: _426  and  _427
REMARK  178  A    between atoms: _432  and  _434
REMARK  179  A    between atoms: _434  and  _435
REMARK  180  A    between atoms: _434  and  _437
REMARK  181  A    between atoms: _437  and  _438
REMARK                            x       y       z     vdW  Elec       q    Type
REMARK                         _______ _______ _______ _____ _____    ______ ____
ROOT
ATOM      1  C   GLY A   3       2.659  11.545  24.270  0.00  0.00    +0.243 C 
ATOM      2  O   GLY A   3       2.426  10.909  25.298  0.00  0.00    -0.273 OA
ATOM      3  N   ASN A   4       3.794  11.416  23.593  0.00  0.00    -0.297 N 
ATOM      4  H   ASN A   4       3.960  11.995  22.745  0.00  0.00    +0.150 HD
ENDROOT
BRANCH   1   5
ATOM      5  CA  GLY A   3       1.671  12.549  23.699  0.00  0.00    +0.176 C 
BRANCH   5   7
ATOM      6  C   VAL A   2      -0.651  11.859  23.837  0.00  0.00    +0.241 C 
ATOM      7  N   GLY A   3       0.379  12.509  24.372  0.00  0.00    -0.295 N 
ATOM      8  H   GLY A   3       0.261  12.996  25.284  0.00  0.00    +0.150 HD
ATOM      9  O   VAL A   2      -0.629  11.361  22.686  0.00  0.00    -0.273 OA
BRANCH   6  10
ATOM     10  CA  VAL A   2      -1.900  11.786  24.707  0.00  0.00    +0.148 C 
BRANCH  10  13
ATOM     11  C   ASP A   1      -2.895  14.007  24.569  0.00  0.00    +0.239 C 
ATOM     12  O   ASP A   1      -2.102  14.480  25.383  0.00  0.00    -0.274 OA
ATOM     13  N   VAL A   2      -2.880  12.731  24.196  0.00  0.00    -0.297 N 
ATOM     14  H   VAL A   2      -3.593  12.398  23.516  0.00  0.00    +0.150 HD
BRANCH  11  15
ATOM     15  CA  ASP A   1      -3.992  14.889  23.962  0.00  0.00    +0.156 C 
BRANCH  15  16
ATOM     16  N   ASP A   1      -5.063  14.983  24.964  0.00  0.00    -0.238 NA
ATOM     17  H   ASP A   1      -4.829  15.374  25.899  0.00  0.00    +0.142 HD
ENDBRANCH  15  16
BRANCH  15  18
ATOM     18  CB  ASP A   1      -3.455  16.296  23.620  0.00  0.00    +0.140 C 
BRANCH  18  19
ATOM     19  CG  ASP A   1      -2.240  16.268  22.675  0.00  0.00    +0.367 C 
ATOM     20  OD2 ASP A   1      -1.487  17.275  22.651  0.00  0.00    -0.246 OA
ATOM     21  OD1 ASP A   1      -2.045  15.266  21.939  0.00  0.00    -0.246 OA
ENDBRANCH  18  19
ENDBRANCH  15  18
ENDBRANCH  11  15
ENDBRANCH  10  13
BRANCH  10  22
ATOM     22  CB  VAL A   2      -2.444  10.348  24.737  0.00  0.00    +0.027 C 
ATOM     23  CG2 VAL A   2      -3.707  10.269  25.594  0.00  0.00    +0.002 C 
ATOM     24  CG1 VAL A   2      -1.379   9.397  25.265  0.00  0.00    +0.002 C 
ENDBRANCH  10  22
ENDBRANCH   6  10
ENDBRANCH   5   7
ENDBRANCH   1   5
BRANCH   3  25
ATOM     25  CA  ASN A   4       4.809  10.466  24.033  0.00  0.00    +0.158 C 
BRANCH  25  26
ATOM     26  C   ASN A   4       5.404  10.729  25.402  0.00  0.00    +0.241 C 
ATOM     27  O   ASN A   4       5.760   9.790  26.104  0.00  0.00    -0.273 OA
ATOM     28  N   THR A   5       5.508  12.000  25.772  0.00  0.00    -0.296 N 
ATOM     29  H   THR A   5       5.208  12.759  25.128  0.00  0.00    +0.150 HD
BRANCH  28  30
ATOM     30  CA  THR A   5       6.045  12.323  27.086  0.00  0.00    +0.164 C 
BRANCH  30  31
ATOM     31  C   THR A   5       4.958  12.810  28.034  0.00  0.00    +0.229 C 
ATOM     32  O   THR A   5       4.901  12.374  29.187  0.00  0.00    -0.286 OA
ENDBRANCH  30  31
BRANCH  30  33
ATOM     33  CB  THR A   5       7.180  13.358  27.005  0.00  0.00    +0.136 C 
ATOM     34  CG2 THR A   5       8.287  12.852  26.116  0.00  0.00    +0.034 C 
BRANCH  33  35
ATOM     35  OG1 THR A   5       6.681  14.566  26.452  0.00  0.00    -0.382 OA
ATOM     36  HG1 THR A   5       7.413  15.231  26.401  0.00  0.00    +0.210 HD
ENDBRANCH  33  35
ENDBRANCH  30  33
ENDBRANCH  28  30
ENDBRANCH  25  26
BRANCH  25  37
ATOM     37  CB  ASN A   4       5.907  10.359  22.980  0.00  0.00    +0.114 C 
BRANCH  37  38
ATOM     38  CG  ASN A   4       5.476   9.536  21.796  0.00  0.00    +0.222 C 
ATOM     39  OD1 ASN A   4       5.376   8.306  21.900  0.00  0.00    -0.275 OA
ATOM     40  ND2 ASN A   4       5.189  10.202  20.669  0.00  0.00    -0.329 N 
ATOM     41 HD21 ASN A   4       5.291  11.237  20.636  0.00  0.00    +0.145 HD
ATOM     42 HD22 ASN A   4       4.865   9.684  19.827  0.00  0.00    +0.145 HD
ENDBRANCH  37  38
ENDBRANCH  25  37
ENDBRANCH   3  25
TORSDOF 17
REMARK  Name = ../refined-set-2016/3bex/3bex_pocket.pdb
REMARK  181 active torsions:
REMARK  status: ('A' for Active; 'I' for Inactive)
REMARK    1  A    between atoms: _1  and  _3
REMARK    2  A    between atoms: _3  and  _4
REMARK    3  A    between atoms: _3  and  _6
REMARK    4  A    between atoms: _6  and  _7
REMARK    5  A    between atoms: _10  and  _12
REMARK    6  A    between atoms: _12  and  _13
REMARK    7  A    between atoms: _12  and  _15
REMARK    8  A    between atoms: _18  and  _20
REMARK    9  A    between atoms: _20  and  _21
REMARK   10  A    between atoms: _23  and  _25
REMARK   11  A    between atoms: _25  and  _26
REMARK   12  A    between atoms: _25  and  _28
REMARK   13  A    between atoms: _28  and  _29
REMARK   14  A    between atoms: _34  and  _36
REMARK   15  A    between atoms: _36  and  _37
REMARK   16  A    between atoms: _36  and  _39
REMARK   17  A    between atoms: _39  and  _40
REMARK   18  A    between atoms: _43  and  _45
REMARK   19  A    between atoms: _45  and  _46
REMARK   20  A    between atoms: _45  and  _48
REMARK   21  A    between atoms: _48  and  _49
REMARK   22  A    between atoms: _51  and  _53
REMARK   23  A    between atoms: _53  and  _54
REMARK   24  A    between atoms: _53  and  _56
REMARK   25  A    between atoms: _59  and  _61
REMARK   26  A    between atoms: _61  and  _62
REMARK   27  A    between atoms: _61  and  _64
REMARK   28  A    between atoms: _68  and  _69
REMARK   29  A    between atoms: _74  and  _76
REMARK   30  A    between atoms: _76  and  _77
REMARK   31  A    between atoms: _76  and  _79
REMARK   32  A    between atoms: _82  and  _84
REMARK   33  A    between atoms: _84  and  _85
REMARK   34  A    between atoms: _84  and  _87
REMARK   35  A    between atoms: _87  and  _88
REMARK   36  A    between atoms: _94  and  _95
REMARK   37  A    between atoms: _100  and  _102
REMARK   38  A    between atoms: _102  and  _103
REMARK   39  A    between atoms: _102  and  _105
REMARK   40  A    between atoms: _105  and  _106
REMARK   41  A    between atoms: _108  and  _110
REMARK   42  A    between atoms: _110  and  _111
REMARK   43  A    between atoms: _110  and  _113
REMARK   44  A    between atoms: _113  and  _114
REMARK   45  A    between atoms: _114  and  _115
REMARK   46  A    between atoms: _118  and  _120
REMARK   47  A    between atoms: _120  and  _121
REMARK   48  A    between atoms: _120  and  _123
REMARK   49  A    between atoms: _126  and  _128
REMARK   50  A    between atoms: _128  and  _129
REMARK   51  A    between atoms: _131  and  _133
REMARK   52  A    between atoms: _133  and  _134
REMARK   53  A    between atoms: _137  and  _139
REMARK   54  A    between atoms: _139  and  _140
REMARK   55  A    between atoms: _139  and  _142
REMARK   56  A    between atoms: _142  and  _143
REMARK   57  A    between atoms: _146  and  _148
REMARK   58  A    between atoms: _148  and  _149
REMARK   59  A    between atoms: _148  and  _151
REMARK   60  A    between atoms: _151  and  _152
REMARK   61  A    between atoms: _152  and  _153
REMARK   62  A    between atoms: _153  and  _154
REMARK   63  A    between atoms: _163  and  _165
REMARK   64  A    between atoms: _165  and  _166
REMARK   65  A    between atoms: _165  and  _168
REMARK   66  A    between atoms: _171  and  _173
REMARK   67  A    between atoms: _173  and  _174
REMARK   68  A    between atoms: _173  and  _176
REMARK   69  A    between atoms: _176  and  _177
REMARK   70  A    between atoms: _182  and  _184
REMARK   71  A    between atoms: _184  and  _185
REMARK   72  A    between atoms: _184  and  _187
REMARK   73  A    between atoms: _187  and  _188
REMARK   74  A    between atoms: _191  and  _193
REMARK   75  A    between atoms: _193  and  _194
REMARK   76  A    between atoms: _196  and  _198
REMARK   77  A    between atoms: _198  and  _199
REMARK   78  A    between atoms: _198  and  _201
REMARK   79  A    between atoms: _201  and  _202
REMARK   80  A    between atoms: _205  and  _207
REMARK   81  A    between atoms: _207  and  _208
REMARK   82  A    between atoms: _211  and  _213
REMARK   83  A    between atoms: _213  and  _214
REMARK   84  A    between atoms: _213  and  _216
REMARK   85  A    between atoms: _216  and  _217
REMARK   86  A    between atoms: _220  and  _222
REMARK   87  A    between atoms: _222  and  _223
REMARK   88  A    between atoms: _222  and  _225
REMARK   89  A    between atoms: _225  and  _226
REMARK   90  A    between atoms: _229  and  _231
REMARK   91  A    between atoms: _231  and  _232
REMARK   92  A    between atoms: _231  and  _234
REMARK   93  A    between atoms: _237  and  _239
REMARK   94  A    between atoms: _239  and  _240
REMARK   95  A    between atoms: _239  and  _242
REMARK   96  A    between atoms: _242  and  _243
REMARK   97  A    between atoms: _246  and  _248
REMARK   98  A    between atoms: _248  and  _249
REMARK   99  A    between atoms: _248  and  _251
REMARK  100  A    between atoms: _251  and  _252
REMARK  101  A    between atoms: _257  and  _258
REMARK  102  A    between atoms: _260  and  _262
REMARK  103  A    between atoms: _262  and  _263
REMARK  104  A    between atoms: _265  and  _267
REMARK  105  A    between atoms: _267  and  _268
REMARK  106  A    between atoms: _271  and  _273
REMARK  107  A    between atoms: _273  and  _274
REMARK  108  A    between atoms: _273  and  _276
REMARK  109  A    between atoms: _276  and  _277
REMARK  110  A    between atoms: _280  and  _282
REMARK  111  A    between atoms: _282  and  _283
REMARK  112  A    between atoms: _282  and  _285
REMARK  113  A    between atoms: _285  and  _286
REMARK  114  A    between atoms: _289  and  _291
REMARK  115  A    between atoms: _291  and  _292
REMARK  116  A    between atoms: _291  and  _294
REMARK  117  A    between atoms: _294  and  _295
REMARK  118  A    between atoms: _295  and  _296
REMARK  119  A    between atoms: _298  and  _300
REMARK  120  A    between atoms: _300  and  _301
REMARK  121  A    between atoms: _300  and  _303
REMARK  122  A    between atoms: _303  and  _304
REMARK  123  A    between atoms: _307  and  _309
REMARK  124  A    between atoms: _309  and  _310
REMARK  125  A    between atoms: _309  and  _312
REMARK  126  A    between atoms: _312  and  _313
REMARK  127  A    between atoms: _316  and  _318
REMARK  128  A    between atoms: _318  and  _319
REMARK  129  A    between atoms: _321  and  _323
REMARK  130  A    between atoms: _323  and  _324
REMARK  131  A    between atoms: _323  and  _326
REMARK  132  A    between atoms: _326  and  _327
REMARK  133  A    between atoms: _330  and  _332
REMARK  134  A    between atoms: _332  and  _333
REMARK  135  A    between atoms: _336  and  _338
REMARK  136  A    between atoms: _338  and  _339
REMARK  137  A    between atoms: _338  and  _341
REMARK  138  A    between atoms: _341  and  _342
REMARK  139  A    between atoms: _342  and  _343
REMARK  140  A    between atoms: _343  and  _344
REMARK  141  A    between atoms: _344  and  _345
REMARK  142  A    between atoms: _349  and  _351
REMARK  143  A    between atoms: _351  and  _352
REMARK  144  A    between atoms: _351  and  _354
REMARK  145  A    between atoms: _354  and  _355
REMARK  146  A    between atoms: _359  and  _360
REMARK  147  A    between atoms: _365  and  _367
REMARK  148  A    between atoms: _367  and  _368
REMARK  149  A    between atoms: _370  and  _372
REMARK  150  A    between atoms: _372  and  _373
REMARK  151  A    between atoms: _372  and  _375
REMARK  152  A    between atoms: _375  and  _376
REMARK  153  A    between atoms: _376  and  _377
REMARK  154  A    between atoms: _377  and  _378
REMARK  155  A    between atoms: _378  and  _379
REMARK  156  A    between atoms: _383  and  _385
REMARK  157  A    between atoms: _385  and  _386
REMARK  158  A    between atoms: _385  and  _388
REMARK  159  A    between atoms: _388  and  _389
REMARK  160  A    between atoms: _392  and  _394
REMARK  161  A    between atoms: _394  and  _395
REMARK  162  A    between atoms: _394  and  _397
REMARK  163  A    between atoms: _397  and  _398
REMARK  164  A    between atoms: _401  and  _403
REMARK  165  A    between atoms: _403  and  _404
REMARK  166  A    between atoms: _403  and  _406
REMARK  167  A    between atoms: _406  and  _407
REMARK  168  A    between atoms: _407  and  _408
REMARK  169  A    between atoms: _411  and  _413
REMARK  170  A    between atoms: _413  and  _414
REMARK  171  A    between atoms: _413  and  _416
REMARK  172  A    between atoms: _416  and  _417
REMARK  173  A    between atoms: _417  and  _418
REMARK  174  A    between atoms: _421  and  _423
REMARK  175  A    between atoms: _423  and  _424
REMARK  176  A    between atoms: _423  and  _426
REMARK  177  A    between atoms: _426  and  _427
REMARK  178  A    between atoms: _432  and  _434
REMARK  179  A    between atoms: _434  and  _435
REMARK  180  A    between atoms: _434  and  _437
REMARK  181  A    between atoms: _437  and  _438
REMARK                            x       y       z     vdW  Elec       q    Type
REMARK                         _______ _______ _______ _____ _____    ______ ____
ROOT
ATOM      1  C   VAL A   2       0.709   7.888  20.263  0.00  0.00    +0.241 C 
ATOM      2  N   VAL A   3       0.083   7.368  21.322  0.00  0.00    -0.297 N 
ATOM      3  H   VAL A   3      -0.847   7.748  21.591  0.00  0.00    +0.150 HD
ATOM      4  O   VAL A   2       1.846   7.558  19.919  0.00  0.00    -0.273 OA
ENDROOT
BRANCH   1   5
ATOM      5  CA  VAL A   2      -0.073   8.958  19.507  0.00  0.00    +0.148 C 
BRANCH   5   7
ATOM      6  C   SER A   1      -2.436   9.336  19.986  0.00  0.00    +0.241 C 
ATOM      7  N   VAL A   2      -1.160   9.516  20.319  0.00  0.00    -0.297 N 
ATOM      8  H   VAL A   2      -0.929  10.064  21.172  0.00  0.00    +0.150 HD
ATOM      9  O   SER A   1      -2.816   8.813  18.935  0.00  0.00    -0.274 OA
BRANCH   6  10
ATOM     10  CA  SER A   1      -3.446   9.813  21.006  0.00  0.00    +0.174 C 
BRANCH  10  11
ATOM     11  N   SER A   1      -4.556  10.546  20.391  0.00  0.00    -0.236 NA
ATOM     12  H   SER A   1      -5.015  10.167  19.538  0.00  0.00    +0.142 HD
ENDBRANCH  10  11
BRANCH  10  13
ATOM     13  CB  SER A   1      -3.944   8.583  21.770  0.00  0.00    +0.163 C 
BRANCH  13  14
ATOM     14  OG  SER A   1      -2.839   7.793  22.212  0.00  0.00    -0.380 OA
ATOM     15  H   SER A   1      -3.176   7.002  22.704  0.00  0.00    +0.211 HD
ENDBRANCH  13  14
ENDBRANCH  10  13
ENDBRANCH   6  10
ENDBRANCH   5   7
BRANCH   5  16
ATOM     16  CB  VAL A   2       0.852  10.073  18.928  0.00  0.00    +0.027 C 
ATOM     17  CG2 VAL A   2       1.564  10.833  20.028  0.00  0.00    +0.002 C 
ATOM     18  CG1 VAL A   2       0.036  11.025  18.024  0.00  0.00    +0.002 C 
ENDBRANCH   5  16
ENDBRANCH   1   5
BRANCH   2  19
ATOM     19  CA  VAL A   3       0.656   6.286  22.115  0.00  0.00    +0.149 C 
BRANCH  19  20
ATOM     20  C   VAL A   3      -0.383   5.179  22.251  0.00  0.00    +0.244 C 
ATOM     21  O   VAL A   3      -1.138   5.148  23.213  0.00  0.00    -0.273 OA
ATOM     22  N   PRO A   4      -0.436   4.269  21.264  0.00  0.00    -0.273 N 
ATOM     23  CA  PRO A   4      -1.481   3.230  21.258  0.00  0.00    +0.140 C 
ATOM     24  CB  PRO A   4      -1.104   2.363  20.059  0.00  0.00    +0.030 C 
ATOM     25  CG  PRO A   4      -0.412   3.340  19.138  0.00  0.00    +0.024 C 
ATOM     26  CD  PRO A   4       0.392   4.213  20.043  0.00  0.00    +0.094 C 
BRANCH  23  27
ATOM     27  C   PRO A   4      -1.607   2.421  22.549  0.00  0.00    +0.227 C 
ATOM     28  O   PRO A   4      -2.721   2.093  22.918  0.00  0.00    -0.286 OA
ENDBRANCH  23  27
ENDBRANCH  19  20
BRANCH  19  29
ATOM     29  CB  VAL A   3       1.104   6.798  23.489  0.00  0.00    +0.027 C 
ATOM     30  CG2 VAL A   3       1.850   5.700  24.251  0.00  0.00    +0.002 C 
ATOM     31  CG1 VAL A   3       1.985   8.020  23.328  0.00  0.00    +0.002 C 
ENDBRANCH  19  29
ENDBRANCH   2  19
TORSDOF 11
REMARK  Name = ../refined-set-2016/3bex/3bex_pocket.pdb
REMARK  181 active torsions:
REMARK  status: ('A' for Active; 'I' for Inactive)
REMARK    1  A    between atoms: _1  and  _3
REMARK    2  A    between atoms: _3  and  _4
REMARK    3  A    between atoms: _3  and  _6
REMARK    4  A    between atoms: _6  and  _7
REMARK    5  A    between atoms: _10  and  _12
REMARK    6  A    between atoms: _12  and  _13
REMARK    7  A    between atoms: _12  and  _15
REMARK    8  A    between atoms: _18  and  _20
REMARK    9  A    between atoms: _20  and  _21
REMARK   10  A    between atoms: _23  and  _25
REMARK   11  A    between atoms: _25  and  _26
REMARK   12  A    between atoms: _25  and  _28
REMARK   13  A    between atoms: _28  and  _29
REMARK   14  A    between atoms: _34  and  _36
REMARK   15  A    between atoms: _36  and  _37
REMARK   16  A    between atoms: _36  and  _39
REMARK   17  A    between atoms: _39  and  _40
REMARK   18  A    between atoms: _43  and  _45
REMARK   19  A    between atoms: _45  and  _46
REMARK   20  A    between atoms: _45  and  _48
REMARK   21  A    between atoms: _48  and  _49
REMARK   22  A    between atoms: _51  and  _53
REMARK   23  A    between atoms: _53  and  _54
REMARK   24  A    between atoms: _53  and  _56
REMARK   25  A    between atoms: _59  and  _61
REMARK   26  A    between atoms: _61  and  _62
REMARK   27  A    between atoms: _61  and  _64
REMARK   28  A    between atoms: _68  and  _69
REMARK   29  A    between atoms: _74  and  _76
REMARK   30  A    between atoms: _76  and  _77
REMARK   31  A    between atoms: _76  and  _79
REMARK   32  A    between atoms: _82  and  _84
REMARK   33  A    between atoms: _84  and  _85
REMARK   34  A    between atoms: _84  and  _87
REMARK   35  A    between atoms: _87  and  _88
REMARK   36  A    between atoms: _94  and  _95
REMARK   37  A    between atoms: _100  and  _102
REMARK   38  A    between atoms: _102  and  _103
REMARK   39  A    between atoms: _102  and  _105
REMARK   40  A    between atoms: _105  and  _106
REMARK   41  A    between atoms: _108  and  _110
REMARK   42  A    between atoms: _110  and  _111
REMARK   43  A    between atoms: _110  and  _113
REMARK   44  A    between atoms: _113  and  _114
REMARK   45  A    between atoms: _114  and  _115
REMARK   46  A    between atoms: _118  and  _120
REMARK   47  A    between atoms: _120  and  _121
REMARK   48  A    between atoms: _120  and  _123
REMARK   49  A    between atoms: _126  and  _128
REMARK   50  A    between atoms: _128  and  _129
REMARK   51  A    between atoms: _131  and  _133
REMARK   52  A    between atoms: _133  and  _134
REMARK   53  A    between atoms: _137  and  _139
REMARK   54  A    between atoms: _139  and  _140
REMARK   55  A    between atoms: _139  and  _142
REMARK   56  A    between atoms: _142  and  _143
REMARK   57  A    between atoms: _146  and  _148
REMARK   58  A    between atoms: _148  and  _149
REMARK   59  A    between atoms: _148  and  _151
REMARK   60  A    between atoms: _151  and  _152
REMARK   61  A    between atoms: _152  and  _153
REMARK   62  A    between atoms: _153  and  _154
REMARK   63  A    between atoms: _163  and  _165
REMARK   64  A    between atoms: _165  and  _166
REMARK   65  A    between atoms: _165  and  _168
REMARK   66  A    between atoms: _171  and  _173
REMARK   67  A    between atoms: _173  and  _174
REMARK   68  A    between atoms: _173  and  _176
REMARK   69  A    between atoms: _176  and  _177
REMARK   70  A    between atoms: _182  and  _184
REMARK   71  A    between atoms: _184  and  _185
REMARK   72  A    between atoms: _184  and  _187
REMARK   73  A    between atoms: _187  and  _188
REMARK   74  A    between atoms: _191  and  _193
REMARK   75  A    between atoms: _193  and  _194
REMARK   76  A    between atoms: _196  and  _198
REMARK   77  A    between atoms: _198  and  _199
REMARK   78  A    between atoms: _198  and  _201
REMARK   79  A    between atoms: _201  and  _202
REMARK   80  A    between atoms: _205  and  _207
REMARK   81  A    between atoms: _207  and  _208
REMARK   82  A    between atoms: _211  and  _213
REMARK   83  A    between atoms: _213  and  _214
REMARK   84  A    between atoms: _213  and  _216
REMARK   85  A    between atoms: _216  and  _217
REMARK   86  A    between atoms: _220  and  _222
REMARK   87  A    between atoms: _222  and  _223
REMARK   88  A    between atoms: _222  and  _225
REMARK   89  A    between atoms: _225  and  _226
REMARK   90  A    between atoms: _229  and  _231
REMARK   91  A    between atoms: _231  and  _232
REMARK   92  A    between atoms: _231  and  _234
REMARK   93  A    between atoms: _237  and  _239
REMARK   94  A    between atoms: _239  and  _240
REMARK   95  A    between atoms: _239  and  _242
REMARK   96  A    between atoms: _242  and  _243
REMARK   97  A    between atoms: _246  and  _248
REMARK   98  A    between atoms: _248  and  _249
REMARK   99  A    between atoms: _248  and  _251
REMARK  100  A    between atoms: _251  and  _252
REMARK  101  A    between atoms: _257  and  _258
REMARK  102  A    between atoms: _260  and  _262
REMARK  103  A    between atoms: _262  and  _263
REMARK  104  A    between atoms: _265  and  _267
REMARK  105  A    between atoms: _267  and  _268
REMARK  106  A    between atoms: _271  and  _273
REMARK  107  A    between atoms: _273  and  _274
REMARK  108  A    between atoms: _273  and  _276
REMARK  109  A    between atoms: _276  and  _277
REMARK  110  A    between atoms: _280  and  _282
REMARK  111  A    between atoms: _282  and  _283
REMARK  112  A    between atoms: _282  and  _285
REMARK  113  A    between atoms: _285  and  _286
REMARK  114  A    between atoms: _289  and  _291
REMARK  115  A    between atoms: _291  and  _292
REMARK  116  A    between atoms: _291  and  _294
REMARK  117  A    between atoms: _294  and  _295
REMARK  118  A    between atoms: _295  and  _296
REMARK  119  A    between atoms: _298  and  _300
REMARK  120  A    between atoms: _300  and  _301
REMARK  121  A    between atoms: _300  and  _303
REMARK  122  A    between atoms: _303  and  _304
REMARK  123  A    between atoms: _307  and  _309
REMARK  124  A    between atoms: _309  and  _310
REMARK  125  A    between atoms: _309  and  _312
REMARK  126  A    between atoms: _312  and  _313
REMARK  127  A    between atoms: _316  and  _318
REMARK  128  A    between atoms: _318  and  _319
REMARK  129  A    between atoms: _321  and  _323
REMARK  130  A    between atoms: _323  and  _324
REMARK  131  A    between atoms: _323  and  _326
REMARK  132  A    between atoms: _326  and  _327
REMARK  133  A    between atoms: _330  and  _332
REMARK  134  A    between atoms: _332  and  _333
REMARK  135  A    between atoms: _336  and  _338
REMARK  136  A    between atoms: _338  and  _339
REMARK  137  A    between atoms: _338  and  _341
REMARK  138  A    between atoms: _341  and  _342
REMARK  139  A    between atoms: _342  and  _343
REMARK  140  A    between atoms: _343  and  _344
REMARK  141  A    between atoms: _344  and  _345
REMARK  142  A    between atoms: _349  and  _351
REMARK  143  A    between atoms: _351  and  _352
REMARK  144  A    between atoms: _351  and  _354
REMARK  145  A    between atoms: _354  and  _355
REMARK  146  A    between atoms: _359  and  _360
REMARK  147  A    between atoms: _365  and  _367
REMARK  148  A    between atoms: _367  and  _368
REMARK  149  A    between atoms: _370  and  _372
REMARK  150  A    between atoms: _372  and  _373
REMARK  151  A    between atoms: _372  and  _375
REMARK  152  A    between atoms: _375  and  _376
REMARK  153  A    between atoms: _376  and  _377
REMARK  154  A    between atoms: _377  and  _378
REMARK  155  A    between atoms: _378  and  _379
REMARK  156  A    between atoms: _383  and  _385
REMARK  157  A    between atoms: _385  and  _386
REMARK  158  A    between atoms: _385  and  _388
REMARK  159  A    between atoms: _388  and  _389
REMARK  160  A    between atoms: _392  and  _394
REMARK  161  A    between atoms: _394  and  _395
REMARK  162  A    between atoms: _394  and  _397
REMARK  163  A    between atoms: _397  and  _398
REMARK  164  A    between atoms: _401  and  _403
REMARK  165  A    between atoms: _403  and  _404
REMARK  166  A    between atoms: _403  and  _406
REMARK  167  A    between atoms: _406  and  _407
REMARK  168  A    between atoms: _407  and  _408
REMARK  169  A    between atoms: _411  and  _413
REMARK  170  A    between atoms: _413  and  _414
REMARK  171  A    between atoms: _413  and  _416
REMARK  172  A    between atoms: _416  and  _417
REMARK  173  A    between atoms: _417  and  _418
REMARK  174  A    between atoms: _421  and  _423
REMARK  175  A    between atoms: _423  and  _424
REMARK  176  A    between atoms: _423  and  _426
REMARK  177  A    between atoms: _426  and  _427
REMARK  178  A    between atoms: _432  and  _434
REMARK  179  A    between atoms: _434  and  _435
REMARK  180  A    between atoms: _434  and  _437
REMARK  181  A    between atoms: _437  and  _438
REMARK                            x       y       z     vdW  Elec       q    Type
REMARK                         _______ _______ _______ _____ _____    ______ ____
ROOT
ATOM      1  CA  VAL A   1      -1.023  11.916   1.372  0.00  0.00    +0.133 C 
ENDROOT
BRANCH   1   2
ATOM      2  CB  VAL A   1      -0.536  12.158   2.838  0.00  0.00    +0.023 C 
ATOM      3  CG2 VAL A   1      -1.576  11.704   3.856  0.00  0.00    +0.002 C 
ATOM      4  CG1 VAL A   1      -0.207  13.624   3.049  0.00  0.00    +0.002 C 
ENDBRANCH   1   2
BRANCH   1   5
ATOM      5  N   VAL A   1      -2.271  12.616   1.091  0.00  0.00    -0.239 NA
ATOM      6  H   VAL A   1      -3.159  12.233   1.473  0.00  0.00    +0.142 HD
ENDBRANCH   1   5
BRANCH   1   7
ATOM      7  C   VAL A   1      -1.213  10.431   1.093  0.00  0.00    +0.224 C 
ATOM      8  O   VAL A   1      -2.333   9.980   0.818  0.00  0.00    -0.287 OA
ENDBRANCH   1   7
TORSDOF 3
REMARK  Name = ../refined-set-2016/3bex/3bex_pocket.pdb
REMARK  181 active torsions:
REMARK  status: ('A' for Active; 'I' for Inactive)
REMARK    1  A    between atoms: _1  and  _3
REMARK    2  A    between atoms: _3  and  _4
REMARK    3  A    between atoms: _3  and  _6
REMARK    4  A    between atoms: _6  and  _7
REMARK    5  A    between atoms: _10  and  _12
REMARK    6  A    between atoms: _12  and  _13
REMARK    7  A    between atoms: _12  and  _15
REMARK    8  A    between atoms: _18  and  _20
REMARK    9  A    between atoms: _20  and  _21
REMARK   10  A    between atoms: _23  and  _25
REMARK   11  A    between atoms: _25  and  _26
REMARK   12  A    between atoms: _25  and  _28
REMARK   13  A    between atoms: _28  and  _29
REMARK   14  A    between atoms: _34  and  _36
REMARK   15  A    between atoms: _36  and  _37
REMARK   16  A    between atoms: _36  and  _39
REMARK   17  A    between atoms: _39  and  _40
REMARK   18  A    between atoms: _43  and  _45
REMARK   19  A    between atoms: _45  and  _46
REMARK   20  A    between atoms: _45  and  _48
REMARK   21  A    between atoms: _48  and  _49
REMARK   22  A    between atoms: _51  and  _53
REMARK   23  A    between atoms: _53  and  _54
REMARK   24  A    between atoms: _53  and  _56
REMARK   25  A    between atoms: _59  and  _61
REMARK   26  A    between atoms: _61  and  _62
REMARK   27  A    between atoms: _61  and  _64
REMARK   28  A    between atoms: _68  and  _69
REMARK   29  A    between atoms: _74  and  _76
REMARK   30  A    between atoms: _76  and  _77
REMARK   31  A    between atoms: _76  and  _79
REMARK   32  A    between atoms: _82  and  _84
REMARK   33  A    between atoms: _84  and  _85
REMARK   34  A    between atoms: _84  and  _87
REMARK   35  A    between atoms: _87  and  _88
REMARK   36  A    between atoms: _94  and  _95
REMARK   37  A    between atoms: _100  and  _102
REMARK   38  A    between atoms: _102  and  _103
REMARK   39  A    between atoms: _102  and  _105
REMARK   40  A    between atoms: _105  and  _106
REMARK   41  A    between atoms: _108  and  _110
REMARK   42  A    between atoms: _110  and  _111
REMARK   43  A    between atoms: _110  and  _113
REMARK   44  A    between atoms: _113  and  _114
REMARK   45  A    between atoms: _114  and  _115
REMARK   46  A    between atoms: _118  and  _120
REMARK   47  A    between atoms: _120  and  _121
REMARK   48  A    between atoms: _120  and  _123
REMARK   49  A    between atoms: _126  and  _128
REMARK   50  A    between atoms: _128  and  _129
REMARK   51  A    between atoms: _131  and  _133
REMARK   52  A    between atoms: _133  and  _134
REMARK   53  A    between atoms: _137  and  _139
REMARK   54  A    between atoms: _139  and  _140
REMARK   55  A    between atoms: _139  and  _142
REMARK   56  A    between atoms: _142  and  _143
REMARK   57  A    between atoms: _146  and  _148
REMARK   58  A    between atoms: _148  and  _149
REMARK   59  A    between atoms: _148  and  _151
REMARK   60  A    between atoms: _151  and  _152
REMARK   61  A    between atoms: _152  and  _153
REMARK   62  A    between atoms: _153  and  _154
REMARK   63  A    between atoms: _163  and  _165
REMARK   64  A    between atoms: _165  and  _166
REMARK   65  A    between atoms: _165  and  _168
REMARK   66  A    between atoms: _171  and  _173
REMARK   67  A    between atoms: _173  and  _174
REMARK   68  A    between atoms: _173  and  _176
REMARK   69  A    between atoms: _176  and  _177
REMARK   70  A    between atoms: _182  and  _184
REMARK   71  A    between atoms: _184  and  _185
REMARK   72  A    between atoms: _184  and  _187
REMARK   73  A    between atoms: _187  and  _188
REMARK   74  A    between atoms: _191  and  _193
REMARK   75  A    between atoms: _193  and  _194
REMARK   76  A    between atoms: _196  and  _198
REMARK   77  A    between atoms: _198  and  _199
REMARK   78  A    between atoms: _198  and  _201
REMARK   79  A    between atoms: _201  and  _202
REMARK   80  A    between atoms: _205  and  _207
REMARK   81  A    between atoms: _207  and  _208
REMARK   82  A    between atoms: _211  and  _213
REMARK   83  A    between atoms: _213  and  _214
REMARK   84  A    between atoms: _213  and  _216
REMARK   85  A    between atoms: _216  and  _217
REMARK   86  A    between atoms: _220  and  _222
REMARK   87  A    between atoms: _222  and  _223
REMARK   88  A    between atoms: _222  and  _225
REMARK   89  A    between atoms: _225  and  _226
REMARK   90  A    between atoms: _229  and  _231
REMARK   91  A    between atoms: _231  and  _232
REMARK   92  A    between atoms: _231  and  _234
REMARK   93  A    between atoms: _237  and  _239
REMARK   94  A    between atoms: _239  and  _240
REMARK   95  A    between atoms: _239  and  _242
REMARK   96  A    between atoms: _242  and  _243
REMARK   97  A    between atoms: _246  and  _248
REMARK   98  A    between atoms: _248  and  _249
REMARK   99  A    between atoms: _248  and  _251
REMARK  100  A    between atoms: _251  and  _252
REMARK  101  A    between atoms: _257  and  _258
REMARK  102  A    between atoms: _260  and  _262
REMARK  103  A    between atoms: _262  and  _263
REMARK  104  A    between atoms: _265  and  _267
REMARK  105  A    between atoms: _267  and  _268
REMARK  106  A    between atoms: _271  and  _273
REMARK  107  A    between atoms: _273  and  _274
REMARK  108  A    between atoms: _273  and  _276
REMARK  109  A    between atoms: _276  and  _277
REMARK  110  A    between atoms: _280  and  _282
REMARK  111  A    between atoms: _282  and  _283
REMARK  112  A    between atoms: _282  and  _285
REMARK  113  A    between atoms: _285  and  _286
REMARK  114  A    between atoms: _289  and  _291
REMARK  115  A    between atoms: _291  and  _292
REMARK  116  A    between atoms: _291  and  _294
REMARK  117  A    between atoms: _294  and  _295
REMARK  118  A    between atoms: _295  and  _296
REMARK  119  A    between atoms: _298  and  _300
REMARK  120  A    between atoms: _300  and  _301
REMARK  121  A    between atoms: _300  and  _303
REMARK  122  A    between atoms: _303  and  _304
REMARK  123  A    between atoms: _307  and  _309
REMARK  124  A    between atoms: _309  and  _310
REMARK  125  A    between atoms: _309  and  _312
REMARK  126  A    between atoms: _312  and  _313
REMARK  127  A    between atoms: _316  and  _318
REMARK  128  A    between atoms: _318  and  _319
REMARK  129  A    between atoms: _321  and  _323
REMARK  130  A    between atoms: _323  and  _324
REMARK  131  A    between atoms: _323  and  _326
REMARK  132  A    between atoms: _326  and  _327
REMARK  133  A    between atoms: _330  and  _332
REMARK  134  A    between atoms: _332  and  _333
REMARK  135  A    between atoms: _336  and  _338
REMARK  136  A    between atoms: _338  and  _339
REMARK  137  A    between atoms: _338  and  _341
REMARK  138  A    between atoms: _341  and  _342
REMARK  139  A    between atoms: _342  and  _343
REMARK  140  A    between atoms: _343  and  _344
REMARK  141  A    between atoms: _344  and  _345
REMARK  142  A    between atoms: _349  and  _351
REMARK  143  A    between atoms: _351  and  _352
REMARK  144  A    between atoms: _351  and  _354
REMARK  145  A    between atoms: _354  and  _355
REMARK  146  A    between atoms: _359  and  _360
REMARK  147  A    between atoms: _365  and  _367
REMARK  148  A    between atoms: _367  and  _368
REMARK  149  A    between atoms: _370  and  _372
REMARK  150  A    between atoms: _372  and  _373
REMARK  151  A    between atoms: _372  and  _375
REMARK  152  A    between atoms: _375  and  _376
REMARK  153  A    between atoms: _376  and  _377
REMARK  154  A    between atoms: _377  and  _378
REMARK  155  A    between atoms: _378  and  _379
REMARK  156  A    between atoms: _383  and  _385
REMARK  157  A    between atoms: _385  and  _386
REMARK  158  A    between atoms: _385  and  _388
REMARK  159  A    between atoms: _388  and  _389
REMARK  160  A    between atoms: _392  and  _394
REMARK  161  A    between atoms: _394  and  _395
REMARK  162  A    between atoms: _394  and  _397
REMARK  163  A    between atoms: _397  and  _398
REMARK  164  A    between atoms: _401  and  _403
REMARK  165  A    between atoms: _403  and  _404
REMARK  166  A    between atoms: _403  and  _406
REMARK  167  A    between atoms: _406  and  _407
REMARK  168  A    between atoms: _407  and  _408
REMARK  169  A    between atoms: _411  and  _413
REMARK  170  A    between atoms: _413  and  _414
REMARK  171  A    between atoms: _413  and  _416
REMARK  172  A    between atoms: _416  and  _417
REMARK  173  A    between atoms: _417  and  _418
REMARK  174  A    between atoms: _421  and  _423
REMARK  175  A    between atoms: _423  and  _424
REMARK  176  A    between atoms: _423  and  _426
REMARK  177  A    between atoms: _426  and  _427
REMARK  178  A    between atoms: _432  and  _434
REMARK  179  A    between atoms: _434  and  _435
REMARK  180  A    between atoms: _434  and  _437
REMARK  181  A    between atoms: _437  and  _438
REMARK                            x       y       z     vdW  Elec       q    Type
REMARK                         _______ _______ _______ _____ _____    ______ ____
ROOT
ATOM      1  C   VAL A   5      -1.221  10.569  11.724  0.00  0.00    +0.241 C 
ATOM      2  N   GLY A   6      -0.305  11.116  12.511  0.00  0.00    -0.295 N 
ATOM      3  H   GLY A   6       0.560  11.519  12.097  0.00  0.00    +0.150 HD
ATOM      4  O   VAL A   5      -2.278  10.095  12.164  0.00  0.00    -0.273 OA
ENDROOT
BRANCH   2   5
ATOM      5  CA  GLY A   6      -0.506  11.155  13.965  0.00  0.00    +0.176 C 
BRANCH   5   6
ATOM      6  C   GLY A   6      -1.775  11.909  14.304  0.00  0.00    +0.243 C 
ATOM      7  N   ALA A   7      -2.530  11.405  15.284  0.00  0.00    -0.297 N 
ATOM      8  H   ALA A   7      -2.217  10.542  15.772  0.00  0.00    +0.150 HD
ATOM      9  O   GLY A   6      -2.077  12.928  13.694  0.00  0.00    -0.273 OA
BRANCH   7  10
ATOM     10  CA  ALA A   7      -3.783  12.035  15.687  0.00  0.00    +0.149 C 
ATOM     11  CB  ALA A   7      -4.520  11.193  16.744  0.00  0.00    +0.031 C 
BRANCH  10  12
ATOM     12  C   ALA A   7      -3.605  13.484  16.161  0.00  0.00    +0.241 C 
ATOM     13  N   ASP A   8      -2.438  13.798  16.732  0.00  0.00    -0.297 N 
ATOM     14  H   ASP A   8      -1.710  13.070  16.877  0.00  0.00    +0.150 HD
ATOM     15  O   ALA A   7      -4.527  14.307  16.001  0.00  0.00    -0.273 OA
BRANCH  13  16
ATOM     16  CA  ASP A   8      -2.197  15.180  17.151  0.00  0.00    +0.160 C 
BRANCH  16  17
ATOM     17  C   ASP A   8      -2.089  16.083  15.936  0.00  0.00    +0.241 C 
ATOM     18  O   ASP A   8      -2.586  17.216  15.956  0.00  0.00    -0.273 OA
ATOM     19  N   ARG A   9      -1.444  15.587  14.877  0.00  0.00    -0.297 N 
ATOM     20  H   ARG A   9      -1.000  14.648  14.937  0.00  0.00    +0.150 HD
BRANCH  19  21
ATOM     21  CA  ARG A   9      -1.356  16.354  13.629  0.00  0.00    +0.149 C 
BRANCH  21  22
ATOM     22  C   ARG A   9      -2.730  16.550  12.996  0.00  0.00    +0.241 C 
ATOM     23  N   VAL A  10      -3.540  15.494  12.989  0.00  0.00    -0.298 N 
ATOM     24  H   VAL A  10      -3.183  14.581  13.337  0.00  0.00    +0.150 HD
ATOM     25  O   ARG A   9      -3.054  17.650  12.544  0.00  0.00    -0.273 OA
BRANCH  23  26
ATOM     26  CA  VAL A  10      -4.928  15.582  12.502  0.00  0.00    +0.137 C 
BRANCH  26  27
ATOM     27  CB  VAL A  10      -5.621  14.212  12.611  0.00  0.00    +0.026 C 
ATOM     28  CG2 VAL A  10      -7.094  14.284  12.230  0.00  0.00    +0.002 C 
ATOM     29  CG1 VAL A  10      -4.902  13.201  11.738  0.00  0.00    +0.002 C 
ENDBRANCH  26  27
BRANCH  26  30
ATOM     30  C   VAL A  10      -5.688  16.648  13.290  0.00  0.00    +0.227 C 
ATOM     31  O   VAL A  10      -6.318  17.536  12.712  0.00  0.00    -0.286 OA
ENDBRANCH  26  30
ENDBRANCH  23  26
ENDBRANCH  21  22
BRANCH  21  32
ATOM     32  CB  ARG A   9      -0.404  15.671  12.661  0.00  0.00    +0.033 C 
BRANCH  32  33
ATOM     33  CG  ARG A   9       0.956  15.421  13.292  0.00  0.00    +0.045 C 
BRANCH  33  34
ATOM     34  CD  ARG A   9       1.818  14.608  12.331  0.00  0.00    +0.174 C 
BRANCH  34  35
ATOM     35  NE  ARG A   9       2.397  15.459  11.299  0.00  0.00    -0.265 N 
ATOM     36  HE  ARG A   9       2.102  16.456  11.267  0.00  0.00    +0.259 HD
ATOM     37  CZ  ARG A   9       3.275  15.043  10.400  0.00  0.00    +0.342 C 
ATOM     38  NH2 ARG A   9       3.649  13.766  10.356  0.00  0.00    -0.292 N 
ATOM     39 HH21 ARG A   9       3.251  13.084  11.032  0.00  0.00    +0.255 HD
ATOM     40 HH22 ARG A   9       4.340  13.451   9.645  0.00  0.00    +0.255 HD
ATOM     41  NH1 ARG A   9       3.763  15.921   9.526  0.00  0.00    -0.292 N 
ATOM     42 HH11 ARG A   9       3.453  16.913   9.558  0.00  0.00    +0.255 HD
ATOM     43 HH12 ARG A   9       4.454  15.614   8.812  0.00  0.00    +0.255 HD
ENDBRANCH  34  35
ENDBRANCH  33  34
ENDBRANCH  32  33
ENDBRANCH  21  32
ENDBRANCH  19  21
ENDBRANCH  16  17
BRANCH  16  44
ATOM     44  CB  ASP A   8      -0.963  15.312  18.075  0.00  0.00    +0.143 C 
BRANCH  44  45
ATOM     45  CG  ASP A   8       0.320  14.668  17.512  0.00  0.00    +0.367 C 
ATOM     46  OD2 ASP A   8       1.384  14.919  18.140  0.00  0.00    -0.246 OA
ATOM     47  OD1 ASP A   8       0.318  13.927  16.506  0.00  0.00    -0.246 OA
ENDBRANCH  44  45
ENDBRANCH  16  44
ENDBRANCH  13  16
ENDBRANCH  10  12
ENDBRANCH   7  10
ENDBRANCH   5   6
ENDBRANCH   2   5
BRANCH   1  48
ATOM     48  CA  VAL A   5      -0.891  10.532  10.226  0.00  0.00    +0.149 C 
BRANCH  48  51
ATOM     49  C   GLU A   4      -0.448   8.135  10.136  0.00  0.00    +0.241 C 
ATOM     50  O   GLU A   4       0.501   8.225  10.922  0.00  0.00    -0.273 OA
ATOM     51  N   VAL A   5      -1.158   9.181   9.724  0.00  0.00    -0.297 N 
ATOM     52  H   VAL A   5      -1.919   9.037   9.030  0.00  0.00    +0.150 HD
BRANCH  49  53
ATOM     53  CA  GLU A   4      -0.864   6.770   9.589  0.00  0.00    +0.149 C 
BRANCH  53  56
ATOM     54  C   SER A   3      -3.295   6.540   9.474  0.00  0.00    +0.243 C 
ATOM     55  O   SER A   3      -3.389   6.308  10.689  0.00  0.00    -0.273 OA
ATOM     56  N   GLU A   4      -2.143   6.819   8.875  0.00  0.00    -0.297 N 
ATOM     57  H   GLU A   4      -2.149   7.080   7.868  0.00  0.00    +0.150 HD
BRANCH  54  58
ATOM     58  CA  SER A   3      -4.546   6.528   8.577  0.00  0.00    +0.178 C 
BRANCH  58  61
ATOM     59  C   PRO A   2      -4.054   8.538   7.272  0.00  0.00    +0.241 C 
ATOM     60  O   PRO A   2      -3.904   9.210   8.286  0.00  0.00    -0.273 OA
ATOM     61  N   SER A   3      -4.341   7.236   7.303  0.00  0.00    -0.295 N 
ATOM     62  H   SER A   3      -4.422   6.710   6.409  0.00  0.00    +0.150 HD
BRANCH  59  66
ATOM     63  C   ASN A   1      -2.250   7.606   5.047  0.00  0.00    +0.242 C 
ATOM     64  O   ASN A   1      -1.586   7.633   6.091  0.00  0.00    -0.273 OA
ATOM     65  N   PRO A   2      -3.366   8.327   4.868  0.00  0.00    -0.272 N 
ATOM     66  CA  PRO A   2      -3.889   9.202   5.911  0.00  0.00    +0.152 C 
ATOM     67  CB  PRO A   2      -5.251   9.623   5.369  0.00  0.00    +0.031 C 
ATOM     68  CG  PRO A   2      -5.073   9.578   3.891  0.00  0.00    +0.024 C 
ATOM     69  CD  PRO A   2      -4.186   8.389   3.645  0.00  0.00    +0.094 C 
BRANCH  63  70
ATOM     70  CA  ASN A   1      -1.810   6.747   3.880  0.00  0.00    +0.154 C 
BRANCH  70  71
ATOM     71  N   ASN A   1      -0.952   7.507   2.967  0.00  0.00    -0.238 NA
ATOM     72  H   ASN A   1      -0.248   8.167   3.356  0.00  0.00    +0.142 HD
ENDBRANCH  70  71
BRANCH  70  73
ATOM     73  CB  ASN A   1      -1.140   5.471   4.391  0.00  0.00    +0.111 C 
BRANCH  73  74
ATOM     74  CG  ASN A   1      -2.134   4.504   5.054  0.00  0.00    +0.221 C 
ATOM     75  OD1 ASN A   1      -3.286   4.864   5.345  0.00  0.00    -0.275 OA
ATOM     76  ND2 ASN A   1      -1.692   3.268   5.288  0.00  0.00    -0.329 N 
ATOM     77 HD21 ASN A   1      -2.320   2.566   5.729  0.00  0.00    +0.145 HD
ATOM     78 HD22 ASN A   1      -0.719   3.006   5.029  0.00  0.00    +0.145 HD
ENDBRANCH  73  74
ENDBRANCH  70  73
ENDBRANCH  63  70
ENDBRANCH  59  66
ENDBRANCH  58  61
BRANCH  58  79
ATOM     79  CB  SER A   3      -4.993   5.079   8.342  0.00  0.00    +0.166 C 
BRANCH  79  80
ATOM     80  OG  SER A   3      -3.895   4.256   7.985  0.00  0.00    -0.380 OA
ATOM     81  H   SER A   3      -3.484   4.599   7.153  0.00  0.00    +0.211 HD
ENDBRANCH  79  80
ENDBRANCH  58  79
ENDBRANCH  54  58
ENDBRANCH  53  56
BRANCH  53  82
ATOM     82  CB  GLU A   4       0.228   6.178   8.699  0.00  0.00    +0.041 C 
BRANCH  82  83
ATOM     83  CG  GLU A   4       0.155   4.650   8.626  0.00  0.00    +0.116 C 
BRANCH  83  84
ATOM     84  CD  GLU A   4       1.105   4.042   7.618  0.00  0.00    +0.365 C 
ATOM     85  OE2 GLU A   4       2.112   4.693   7.251  0.00  0.00    -0.246 OA
ATOM     86  OE1 GLU A   4       0.839   2.895   7.194  0.00  0.00    -0.246 OA
ENDBRANCH  83  84
ENDBRANCH  82  83
ENDBRANCH  53  82
ENDBRANCH  49  53
ENDBRANCH  48  51
BRANCH  48  87
ATOM     87  CB  VAL A   5      -1.713  11.593   9.458  0.00  0.00    +0.027 C 
ATOM     88  CG2 VAL A   5      -1.493  12.984  10.051  0.00  0.00    +0.002 C 
ATOM     89  CG1 VAL A   5      -1.377  11.580   7.954  0.00  0.00    +0.002 C 
ENDBRANCH  48  87
ENDBRANCH   1  48
TORSDOF 34
REMARK  Name = ../refined-set-2016/3bex/3bex_pocket.pdb
REMARK  181 active torsions:
REMARK  status: ('A' for Active; 'I' for Inactive)
REMARK    1  A    between atoms: _1  and  _3
REMARK    2  A    between atoms: _3  and  _4
REMARK    3  A    between atoms: _3  and  _6
REMARK    4  A    between atoms: _6  and  _7
REMARK    5  A    between atoms: _10  and  _12
REMARK    6  A    between atoms: _12  and  _13
REMARK    7  A    between atoms: _12  and  _15
REMARK    8  A    between atoms: _18  and  _20
REMARK    9  A    between atoms: _20  and  _21
REMARK   10  A    between atoms: _23  and  _25
REMARK   11  A    between atoms: _25  and  _26
REMARK   12  A    between atoms: _25  and  _28
REMARK   13  A    between atoms: _28  and  _29
REMARK   14  A    between atoms: _34  and  _36
REMARK   15  A    between atoms: _36  and  _37
REMARK   16  A    between atoms: _36  and  _39
REMARK   17  A    between atoms: _39  and  _40
REMARK   18  A    between atoms: _43  and  _45
REMARK   19  A    between atoms: _45  and  _46
REMARK   20  A    between atoms: _45  and  _48
REMARK   21  A    between atoms: _48  and  _49
REMARK   22  A    between atoms: _51  and  _53
REMARK   23  A    between atoms: _53  and  _54
REMARK   24  A    between atoms: _53  and  _56
REMARK   25  A    between atoms: _59  and  _61
REMARK   26  A    between atoms: _61  and  _62
REMARK   27  A    between atoms: _61  and  _64
REMARK   28  A    between atoms: _68  and  _69
REMARK   29  A    between atoms: _74  and  _76
REMARK   30  A    between atoms: _76  and  _77
REMARK   31  A    between atoms: _76  and  _79
REMARK   32  A    between atoms: _82  and  _84
REMARK   33  A    between atoms: _84  and  _85
REMARK   34  A    between atoms: _84  and  _87
REMARK   35  A    between atoms: _87  and  _88
REMARK   36  A    between atoms: _94  and  _95
REMARK   37  A    between atoms: _100  and  _102
REMARK   38  A    between atoms: _102  and  _103
REMARK   39  A    between atoms: _102  and  _105
REMARK   40  A    between atoms: _105  and  _106
REMARK   41  A    between atoms: _108  and  _110
REMARK   42  A    between atoms: _110  and  _111
REMARK   43  A    between atoms: _110  and  _113
REMARK   44  A    between atoms: _113  and  _114
REMARK   45  A    between atoms: _114  and  _115
REMARK   46  A    between atoms: _118  and  _120
REMARK   47  A    between atoms: _120  and  _121
REMARK   48  A    between atoms: _120  and  _123
REMARK   49  A    between atoms: _126  and  _128
REMARK   50  A    between atoms: _128  and  _129
REMARK   51  A    between atoms: _131  and  _133
REMARK   52  A    between atoms: _133  and  _134
REMARK   53  A    between atoms: _137  and  _139
REMARK   54  A    between atoms: _139  and  _140
REMARK   55  A    between atoms: _139  and  _142
REMARK   56  A    between atoms: _142  and  _143
REMARK   57  A    between atoms: _146  and  _148
REMARK   58  A    between atoms: _148  and  _149
REMARK   59  A    between atoms: _148  and  _151
REMARK   60  A    between atoms: _151  and  _152
REMARK   61  A    between atoms: _152  and  _153
REMARK   62  A    between atoms: _153  and  _154
REMARK   63  A    between atoms: _163  and  _165
REMARK   64  A    between atoms: _165  and  _166
REMARK   65  A    between atoms: _165  and  _168
REMARK   66  A    between atoms: _171  and  _173
REMARK   67  A    between atoms: _173  and  _174
REMARK   68  A    between atoms: _173  and  _176
REMARK   69  A    between atoms: _176  and  _177
REMARK   70  A    between atoms: _182  and  _184
REMARK   71  A    between atoms: _184  and  _185
REMARK   72  A    between atoms: _184  and  _187
REMARK   73  A    between atoms: _187  and  _188
REMARK   74  A    between atoms: _191  and  _193
REMARK   75  A    between atoms: _193  and  _194
REMARK   76  A    between atoms: _196  and  _198
REMARK   77  A    between atoms: _198  and  _199
REMARK   78  A    between atoms: _198  and  _201
REMARK   79  A    between atoms: _201  and  _202
REMARK   80  A    between atoms: _205  and  _207
REMARK   81  A    between atoms: _207  and  _208
REMARK   82  A    between atoms: _211  and  _213
REMARK   83  A    between atoms: _213  and  _214
REMARK   84  A    between atoms: _213  and  _216
REMARK   85  A    between atoms: _216  and  _217
REMARK   86  A    between atoms: _220  and  _222
REMARK   87  A    between atoms: _222  and  _223
REMARK   88  A    between atoms: _222  and  _225
REMARK   89  A    between atoms: _225  and  _226
REMARK   90  A    between atoms: _229  and  _231
REMARK   91  A    between atoms: _231  and  _232
REMARK   92  A    between atoms: _231  and  _234
REMARK   93  A    between atoms: _237  and  _239
REMARK   94  A    between atoms: _239  and  _240
REMARK   95  A    between atoms: _239  and  _242
REMARK   96  A    between atoms: _242  and  _243
REMARK   97  A    between atoms: _246  and  _248
REMARK   98  A    between atoms: _248  and  _249
REMARK   99  A    between atoms: _248  and  _251
REMARK  100  A    between atoms: _251  and  _252
REMARK  101  A    between atoms: _257  and  _258
REMARK  102  A    between atoms: _260  and  _262
REMARK  103  A    between atoms: _262  and  _263
REMARK  104  A    between atoms: _265  and  _267
REMARK  105  A    between atoms: _267  and  _268
REMARK  106  A    between atoms: _271  and  _273
REMARK  107  A    between atoms: _273  and  _274
REMARK  108  A    between atoms: _273  and  _276
REMARK  109  A    between atoms: _276  and  _277
REMARK  110  A    between atoms: _280  and  _282
REMARK  111  A    between atoms: _282  and  _283
REMARK  112  A    between atoms: _282  and  _285
REMARK  113  A    between atoms: _285  and  _286
REMARK  114  A    between atoms: _289  and  _291
REMARK  115  A    between atoms: _291  and  _292
REMARK  116  A    between atoms: _291  and  _294
REMARK  117  A    between atoms: _294  and  _295
REMARK  118  A    between atoms: _295  and  _296
REMARK  119  A    between atoms: _298  and  _300
REMARK  120  A    between atoms: _300  and  _301
REMARK  121  A    between atoms: _300  and  _303
REMARK  122  A    between atoms: _303  and  _304
REMARK  123  A    between atoms: _307  and  _309
REMARK  124  A    between atoms: _309  and  _310
REMARK  125  A    between atoms: _309  and  _312
REMARK  126  A    between atoms: _312  and  _313
REMARK  127  A    between atoms: _316  and  _318
REMARK  128  A    between atoms: _318  and  _319
REMARK  129  A    between atoms: _321  and  _323
REMARK  130  A    between atoms: _323  and  _324
REMARK  131  A    between atoms: _323  and  _326
REMARK  132  A    between atoms: _326  and  _327
REMARK  133  A    between atoms: _330  and  _332
REMARK  134  A    between atoms: _332  and  _333
REMARK  135  A    between atoms: _336  and  _338
REMARK  136  A    between atoms: _338  and  _339
REMARK  137  A    between atoms: _338  and  _341
REMARK  138  A    between atoms: _341  and  _342
REMARK  139  A    between atoms: _342  and  _343
REMARK  140  A    between atoms: _343  and  _344
REMARK  141  A    between atoms: _344  and  _345
REMARK  142  A    between atoms: _349  and  _351
REMARK  143  A    between atoms: _351  and  _352
REMARK  144  A    between atoms: _351  and  _354
REMARK  145  A    between atoms: _354  and  _355
REMARK  146  A    between atoms: _359  and  _360
REMARK  147  A    between atoms: _365  and  _367
REMARK  148  A    between atoms: _367  and  _368
REMARK  149  A    between atoms: _370  and  _372
REMARK  150  A    between atoms: _372  and  _373
REMARK  151  A    between atoms: _372  and  _375
REMARK  152  A    between atoms: _375  and  _376
REMARK  153  A    between atoms: _376  and  _377
REMARK  154  A    between atoms: _377  and  _378
REMARK  155  A    between atoms: _378  and  _379
REMARK  156  A    between atoms: _383  and  _385
REMARK  157  A    between atoms: _385  and  _386
REMARK  158  A    between atoms: _385  and  _388
REMARK  159  A    between atoms: _388  and  _389
REMARK  160  A    between atoms: _392  and  _394
REMARK  161  A    between atoms: _394  and  _395
REMARK  162  A    between atoms: _394  and  _397
REMARK  163  A    between atoms: _397  and  _398
REMARK  164  A    between atoms: _401  and  _403
REMARK  165  A    between atoms: _403  and  _404
REMARK  166  A    between atoms: _403  and  _406
REMARK  167  A    between atoms: _406  and  _407
REMARK  168  A    between atoms: _407  and  _408
REMARK  169  A    between atoms: _411  and  _413
REMARK  170  A    between atoms: _413  and  _414
REMARK  171  A    between atoms: _413  and  _416
REMARK  172  A    between atoms: _416  and  _417
REMARK  173  A    between atoms: _417  and  _418
REMARK  174  A    between atoms: _421  and  _423
REMARK  175  A    between atoms: _423  and  _424
REMARK  176  A    between atoms: _423  and  _426
REMARK  177  A    between atoms: _426  and  _427
REMARK  178  A    between atoms: _432  and  _434
REMARK  179  A    between atoms: _434  and  _435
REMARK  180  A    between atoms: _434  and  _437
REMARK  181  A    between atoms: _437  and  _438
REMARK                            x       y       z     vdW  Elec       q    Type
REMARK                         _______ _______ _______ _____ _____    ______ ____
ROOT
ATOM      1  CB  ASN A   1      -2.388  20.474  14.457  0.00  0.00    +0.110 C 
ENDROOT
BRANCH   1   2
ATOM      2  CG  ASN A   1      -1.731  20.357  15.809  0.00  0.00    +0.221 C 
ATOM      3  OD1 ASN A   1      -2.367  20.583  16.844  0.00  0.00    -0.275 OA
ATOM      4  ND2 ASN A   1      -0.440  19.994  15.809  0.00  0.00    -0.329 N 
ATOM      5 HD21 ASN A   1       0.071  19.891  16.709  0.00  0.00    +0.145 HD
ATOM      6 HD22 ASN A   1       0.050  19.815  14.909  0.00  0.00    +0.145 HD
ENDBRANCH   1   2
BRANCH   1   7
ATOM      7  CA  ASN A   1      -3.918  20.508  14.553  0.00  0.00    +0.142 C 
BRANCH   7   8
ATOM      8  N   ASN A   1      -4.456  19.178  14.914  0.00  0.00    -0.239 NA
ATOM      9  H   ASN A   1      -3.810  18.372  15.032  0.00  0.00    +0.142 HD
ENDBRANCH   7   8
BRANCH   7  10
ATOM     10  C   ASN A   1      -4.508  21.007  13.247  0.00  0.00    +0.225 C 
ATOM     11  O   ASN A   1      -4.897  22.177  13.149  0.00  0.00    -0.287 OA
ENDBRANCH   7  10
ENDBRANCH   1   7
TORSDOF 4
REMARK  Name = ../refined-set-2016/3bex/3bex_pocket.pdb
REMARK  181 active torsions:
REMARK  status: ('A' for Active; 'I' for Inactive)
REMARK    1  A    between atoms: _1  and  _3
REMARK    2  A    between atoms: _3  and  _4
REMARK    3  A    between atoms: _3  and  _6
REMARK    4  A    between atoms: _6  and  _7
REMARK    5  A    between atoms: _10  and  _12
REMARK    6  A    between atoms: _12  and  _13
REMARK    7  A    between atoms: _12  and  _15
REMARK    8  A    between atoms: _18  and  _20
REMARK    9  A    between atoms: _20  and  _21
REMARK   10  A    between atoms: _23  and  _25
REMARK   11  A    between atoms: _25  and  _26
REMARK   12  A    between atoms: _25  and  _28
REMARK   13  A    between atoms: _28  and  _29
REMARK   14  A    between atoms: _34  and  _36
REMARK   15  A    between atoms: _36  and  _37
REMARK   16  A    between atoms: _36  and  _39
REMARK   17  A    between atoms: _39  and  _40
REMARK   18  A    between atoms: _43  and  _45
REMARK   19  A    between atoms: _45  and  _46
REMARK   20  A    between atoms: _45  and  _48
REMARK   21  A    between atoms: _48  and  _49
REMARK   22  A    between atoms: _51  and  _53
REMARK   23  A    between atoms: _53  and  _54
REMARK   24  A    between atoms: _53  and  _56
REMARK   25  A    between atoms: _59  and  _61
REMARK   26  A    between atoms: _61  and  _62
REMARK   27  A    between atoms: _61  and  _64
REMARK   28  A    between atoms: _68  and  _69
REMARK   29  A    between atoms: _74  and  _76
REMARK   30  A    between atoms: _76  and  _77
REMARK   31  A    between atoms: _76  and  _79
REMARK   32  A    between atoms: _82  and  _84
REMARK   33  A    between atoms: _84  and  _85
REMARK   34  A    between atoms: _84  and  _87
REMARK   35  A    between atoms: _87  and  _88
REMARK   36  A    between atoms: _94  and  _95
REMARK   37  A    between atoms: _100  and  _102
REMARK   38  A    between atoms: _102  and  _103
REMARK   39  A    between atoms: _102  and  _105
REMARK   40  A    between atoms: _105  and  _106
REMARK   41  A    between atoms: _108  and  _110
REMARK   42  A    between atoms: _110  and  _111
REMARK   43  A    between atoms: _110  and  _113
REMARK   44  A    between atoms: _113  and  _114
REMARK   45  A    between atoms: _114  and  _115
REMARK   46  A    between atoms: _118  and  _120
REMARK   47  A    between atoms: _120  and  _121
REMARK   48  A    between atoms: _120  and  _123
REMARK   49  A    between atoms: _126  and  _128
REMARK   50  A    between atoms: _128  and  _129
REMARK   51  A    between atoms: _131  and  _133
REMARK   52  A    between atoms: _133  and  _134
REMARK   53  A    between atoms: _137  and  _139
REMARK   54  A    between atoms: _139  and  _140
REMARK   55  A    between atoms: _139  and  _142
REMARK   56  A    between atoms: _142  and  _143
REMARK   57  A    between atoms: _146  and  _148
REMARK   58  A    between atoms: _148  and  _149
REMARK   59  A    between atoms: _148  and  _151
REMARK   60  A    between atoms: _151  and  _152
REMARK   61  A    between atoms: _152  and  _153
REMARK   62  A    between atoms: _153  and  _154
REMARK   63  A    between atoms: _163  and  _165
REMARK   64  A    between atoms: _165  and  _166
REMARK   65  A    between atoms: _165  and  _168
REMARK   66  A    between atoms: _171  and  _173
REMARK   67  A    between atoms: _173  and  _174
REMARK   68  A    between atoms: _173  and  _176
REMARK   69  A    between atoms: _176  and  _177
REMARK   70  A    between atoms: _182  and  _184
REMARK   71  A    between atoms: _184  and  _185
REMARK   72  A    between atoms: _184  and  _187
REMARK   73  A    between atoms: _187  and  _188
REMARK   74  A    between atoms: _191  and  _193
REMARK   75  A    between atoms: _193  and  _194
REMARK   76  A    between atoms: _196  and  _198
REMARK   77  A    between atoms: _198  and  _199
REMARK   78  A    between atoms: _198  and  _201
REMARK   79  A    between atoms: _201  and  _202
REMARK   80  A    between atoms: _205  and  _207
REMARK   81  A    between atoms: _207  and  _208
REMARK   82  A    between atoms: _211  and  _213
REMARK   83  A    between atoms: _213  and  _214
REMARK   84  A    between atoms: _213  and  _216
REMARK   85  A    between atoms: _216  and  _217
REMARK   86  A    between atoms: _220  and  _222
REMARK   87  A    between atoms: _222  and  _223
REMARK   88  A    between atoms: _222  and  _225
REMARK   89  A    between atoms: _225  and  _226
REMARK   90  A    between atoms: _229  and  _231
REMARK   91  A    between atoms: _231  and  _232
REMARK   92  A    between atoms: _231  and  _234
REMARK   93  A    between atoms: _237  and  _239
REMARK   94  A    between atoms: _239  and  _240
REMARK   95  A    between atoms: _239  and  _242
REMARK   96  A    between atoms: _242  and  _243
REMARK   97  A    between atoms: _246  and  _248
REMARK   98  A    between atoms: _248  and  _249
REMARK   99  A    between atoms: _248  and  _251
REMARK  100  A    between atoms: _251  and  _252
REMARK  101  A    between atoms: _257  and  _258
REMARK  102  A    between atoms: _260  and  _262
REMARK  103  A    between atoms: _262  and  _263
REMARK  104  A    between atoms: _265  and  _267
REMARK  105  A    between atoms: _267  and  _268
REMARK  106  A    between atoms: _271  and  _273
REMARK  107  A    between atoms: _273  and  _274
REMARK  108  A    between atoms: _273  and  _276
REMARK  109  A    between atoms: _276  and  _277
REMARK  110  A    between atoms: _280  and  _282
REMARK  111  A    between atoms: _282  and  _283
REMARK  112  A    between atoms: _282  and  _285
REMARK  113  A    between atoms: _285  and  _286
REMARK  114  A    between atoms: _289  and  _291
REMARK  115  A    between atoms: _291  and  _292
REMARK  116  A    between atoms: _291  and  _294
REMARK  117  A    between atoms: _294  and  _295
REMARK  118  A    between atoms: _295  and  _296
REMARK  119  A    between atoms: _298  and  _300
REMARK  120  A    between atoms: _300  and  _301
REMARK  121  A    between atoms: _300  and  _303
REMARK  122  A    between atoms: _303  and  _304
REMARK  123  A    between atoms: _307  and  _309
REMARK  124  A    between atoms: _309  and  _310
REMARK  125  A    between atoms: _309  and  _312
REMARK  126  A    between atoms: _312  and  _313
REMARK  127  A    between atoms: _316  and  _318
REMARK  128  A    between atoms: _318  and  _319
REMARK  129  A    between atoms: _321  and  _323
REMARK  130  A    between atoms: _323  and  _324
REMARK  131  A    between atoms: _323  and  _326
REMARK  132  A    between atoms: _326  and  _327
REMARK  133  A    between atoms: _330  and  _332
REMARK  134  A    between atoms: _332  and  _333
REMARK  135  A    between atoms: _336  and  _338
REMARK  136  A    between atoms: _338  and  _339
REMARK  137  A    between atoms: _338  and  _341
REMARK  138  A    between atoms: _341  and  _342
REMARK  139  A    between atoms: _342  and  _343
REMARK  140  A    between atoms: _343  and  _344
REMARK  141  A    between atoms: _344  and  _345
REMARK  142  A    between atoms: _349  and  _351
REMARK  143  A    between atoms: _351  and  _352
REMARK  144  A    between atoms: _351  and  _354
REMARK  145  A    between atoms: _354  and  _355
REMARK  146  A    between atoms: _359  and  _360
REMARK  147  A    between atoms: _365  and  _367
REMARK  148  A    between atoms: _367  and  _368
REMARK  149  A    between atoms: _370  and  _372
REMARK  150  A    between atoms: _372  and  _373
REMARK  151  A    between atoms: _372  and  _375
REMARK  152  A    between atoms: _375  and  _376
REMARK  153  A    between atoms: _376  and  _377
REMARK  154  A    between atoms: _377  and  _378
REMARK  155  A    between atoms: _378  and  _379
REMARK  156  A    between atoms: _383  and  _385
REMARK  157  A    between atoms: _385  and  _386
REMARK  158  A    between atoms: _385  and  _388
REMARK  159  A    between atoms: _388  and  _389
REMARK  160  A    between atoms: _392  and  _394
REMARK  161  A    between atoms: _394  and  _395
REMARK  162  A    between atoms: _394  and  _397
REMARK  163  A    between atoms: _397  and  _398
REMARK  164  A    between atoms: _401  and  _403
REMARK  165  A    between atoms: _403  and  _404
REMARK  166  A    between atoms: _403  and  _406
REMARK  167  A    between atoms: _406  and  _407
REMARK  168  A    between atoms: _407  and  _408
REMARK  169  A    between atoms: _411  and  _413
REMARK  170  A    between atoms: _413  and  _414
REMARK  171  A    between atoms: _413  and  _416
REMARK  172  A    between atoms: _416  and  _417
REMARK  173  A    between atoms: _417  and  _418
REMARK  174  A    between atoms: _421  and  _423
REMARK  175  A    between atoms: _423  and  _424
REMARK  176  A    between atoms: _423  and  _426
REMARK  177  A    between atoms: _426  and  _427
REMARK  178  A    between atoms: _432  and  _434
REMARK  179  A    between atoms: _434  and  _435
REMARK  180  A    between atoms: _434  and  _437
REMARK  181  A    between atoms: _437  and  _438
REMARK                            x       y       z     vdW  Elec       q    Type
REMARK                         _______ _______ _______ _____ _____    ______ ____
ROOT
ATOM      1  CA  ASP A   1       4.130  21.870  16.625  0.00  0.00    +0.144 C 
ENDROOT
BRANCH   1   2
ATOM      2  N   ASP A   1       4.471  22.343  15.294  0.00  0.00    -0.239 NA
ATOM      3  H   ASP A   1       4.872  21.681  14.600  0.00  0.00    +0.142 HD
ENDBRANCH   1   2
BRANCH   1   4
ATOM      4  C   ASP A   1       5.386  21.306  17.281  0.00  0.00    +0.225 C 
ATOM      5  O   ASP A   1       5.889  20.244  16.913  0.00  0.00    -0.287 OA
ENDBRANCH   1   4
BRANCH   1   6
ATOM      6  CB  ASP A   1       3.019  20.820  16.549  0.00  0.00    +0.139 C 
BRANCH   6   7
ATOM      7  CG  ASP A   1       2.485  20.407  17.915  0.00  0.00    +0.367 C 
ATOM      8  OD2 ASP A   1       3.051  20.787  18.966  0.00  0.00    -0.246 OA
ATOM      9  OD1 ASP A   1       1.480  19.680  17.948  0.00  0.00    -0.246 OA
ENDBRANCH   6   7
ENDBRANCH   1   6
TORSDOF 4
REMARK  Name = ../refined-set-2016/3bex/3bex_pocket.pdb
REMARK  181 active torsions:
REMARK  status: ('A' for Active; 'I' for Inactive)
REMARK    1  A    between atoms: _1  and  _3
REMARK    2  A    between atoms: _3  and  _4
REMARK    3  A    between atoms: _3  and  _6
REMARK    4  A    between atoms: _6  and  _7
REMARK    5  A    between atoms: _10  and  _12
REMARK    6  A    between atoms: _12  and  _13
REMARK    7  A    between atoms: _12  and  _15
REMARK    8  A    between atoms: _18  and  _20
REMARK    9  A    between atoms: _20  and  _21
REMARK   10  A    between atoms: _23  and  _25
REMARK   11  A    between atoms: _25  and  _26
REMARK   12  A    between atoms: _25  and  _28
REMARK   13  A    between atoms: _28  and  _29
REMARK   14  A    between atoms: _34  and  _36
REMARK   15  A    between atoms: _36  and  _37
REMARK   16  A    between atoms: _36  and  _39
REMARK   17  A    between atoms: _39  and  _40
REMARK   18  A    between atoms: _43  and  _45
REMARK   19  A    between atoms: _45  and  _46
REMARK   20  A    between atoms: _45  and  _48
REMARK   21  A    between atoms: _48  and  _49
REMARK   22  A    between atoms: _51  and  _53
REMARK   23  A    between atoms: _53  and  _54
REMARK   24  A    between atoms: _53  and  _56
REMARK   25  A    between atoms: _59  and  _61
REMARK   26  A    between atoms: _61  and  _62
REMARK   27  A    between atoms: _61  and  _64
REMARK   28  A    between atoms: _68  and  _69
REMARK   29  A    between atoms: _74  and  _76
REMARK   30  A    between atoms: _76  and  _77
REMARK   31  A    between atoms: _76  and  _79
REMARK   32  A    between atoms: _82  and  _84
REMARK   33  A    between atoms: _84  and  _85
REMARK   34  A    between atoms: _84  and  _87
REMARK   35  A    between atoms: _87  and  _88
REMARK   36  A    between atoms: _94  and  _95
REMARK   37  A    between atoms: _100  and  _102
REMARK   38  A    between atoms: _102  and  _103
REMARK   39  A    between atoms: _102  and  _105
REMARK   40  A    between atoms: _105  and  _106
REMARK   41  A    between atoms: _108  and  _110
REMARK   42  A    between atoms: _110  and  _111
REMARK   43  A    between atoms: _110  and  _113
REMARK   44  A    between atoms: _113  and  _114
REMARK   45  A    between atoms: _114  and  _115
REMARK   46  A    between atoms: _118  and  _120
REMARK   47  A    between atoms: _120  and  _121
REMARK   48  A    between atoms: _120  and  _123
REMARK   49  A    between atoms: _126  and  _128
REMARK   50  A    between atoms: _128  and  _129
REMARK   51  A    between atoms: _131  and  _133
REMARK   52  A    between atoms: _133  and  _134
REMARK   53  A    between atoms: _137  and  _139
REMARK   54  A    between atoms: _139  and  _140
REMARK   55  A    between atoms: _139  and  _142
REMARK   56  A    between atoms: _142  and  _143
REMARK   57  A    between atoms: _146  and  _148
REMARK   58  A    between atoms: _148  and  _149
REMARK   59  A    between atoms: _148  and  _151
REMARK   60  A    between atoms: _151  and  _152
REMARK   61  A    between atoms: _152  and  _153
REMARK   62  A    between atoms: _153  and  _154
REMARK   63  A    between atoms: _163  and  _165
REMARK   64  A    between atoms: _165  and  _166
REMARK   65  A    between atoms: _165  and  _168
REMARK   66  A    between atoms: _171  and  _173
REMARK   67  A    between atoms: _173  and  _174
REMARK   68  A    between atoms: _173  and  _176
REMARK   69  A    between atoms: _176  and  _177
REMARK   70  A    between atoms: _182  and  _184
REMARK   71  A    between atoms: _184  and  _185
REMARK   72  A    between atoms: _184  and  _187
REMARK   73  A    between atoms: _187  and  _188
REMARK   74  A    between atoms: _191  and  _193
REMARK   75  A    between atoms: _193  and  _194
REMARK   76  A    between atoms: _196  and  _198
REMARK   77  A    between atoms: _198  and  _199
REMARK   78  A    between atoms: _198  and  _201
REMARK   79  A    between atoms: _201  and  _202
REMARK   80  A    between atoms: _205  and  _207
REMARK   81  A    between atoms: _207  and  _208
REMARK   82  A    between atoms: _211  and  _213
REMARK   83  A    between atoms: _213  and  _214
REMARK   84  A    between atoms: _213  and  _216
REMARK   85  A    between atoms: _216  and  _217
REMARK   86  A    between atoms: _220  and  _222
REMARK   87  A    between atoms: _222  and  _223
REMARK   88  A    between atoms: _222  and  _225
REMARK   89  A    between atoms: _225  and  _226
REMARK   90  A    between atoms: _229  and  _231
REMARK   91  A    between atoms: _231  and  _232
REMARK   92  A    between atoms: _231  and  _234
REMARK   93  A    between atoms: _237  and  _239
REMARK   94  A    between atoms: _239  and  _240
REMARK   95  A    between atoms: _239  and  _242
REMARK   96  A    between atoms: _242  and  _243
REMARK   97  A    between atoms: _246  and  _248
REMARK   98  A    between atoms: _248  and  _249
REMARK   99  A    between atoms: _248  and  _251
REMARK  100  A    between atoms: _251  and  _252
REMARK  101  A    between atoms: _257  and  _258
REMARK  102  A    between atoms: _260  and  _262
REMARK  103  A    between atoms: _262  and  _263
REMARK  104  A    between atoms: _265  and  _267
REMARK  105  A    between atoms: _267  and  _268
REMARK  106  A    between atoms: _271  and  _273
REMARK  107  A    between atoms: _273  and  _274
REMARK  108  A    between atoms: _273  and  _276
REMARK  109  A    between atoms: _276  and  _277
REMARK  110  A    between atoms: _280  and  _282
REMARK  111  A    between atoms: _282  and  _283
REMARK  112  A    between atoms: _282  and  _285
REMARK  113  A    between atoms: _285  and  _286
REMARK  114  A    between atoms: _289  and  _291
REMARK  115  A    between atoms: _291  and  _292
REMARK  116  A    between atoms: _291  and  _294
REMARK  117  A    between atoms: _294  and  _295
REMARK  118  A    between atoms: _295  and  _296
REMARK  119  A    between atoms: _298  and  _300
REMARK  120  A    between atoms: _300  and  _301
REMARK  121  A    between atoms: _300  and  _303
REMARK  122  A    between atoms: _303  and  _304
REMARK  123  A    between atoms: _307  and  _309
REMARK  124  A    between atoms: _309  and  _310
REMARK  125  A    between atoms: _309  and  _312
REMARK  126  A    between atoms: _312  and  _313
REMARK  127  A    between atoms: _316  and  _318
REMARK  128  A    between atoms: _318  and  _319
REMARK  129  A    between atoms: _321  and  _323
REMARK  130  A    between atoms: _323  and  _324
REMARK  131  A    between atoms: _323  and  _326
REMARK  132  A    between atoms: _326  and  _327
REMARK  133  A    between atoms: _330  and  _332
REMARK  134  A    between atoms: _332  and  _333
REMARK  135  A    between atoms: _336  and  _338
REMARK  136  A    between atoms: _338  and  _339
REMARK  137  A    between atoms: _338  and  _341
REMARK  138  A    between atoms: _341  and  _342
REMARK  139  A    between atoms: _342  and  _343
REMARK  140  A    between atoms: _343  and  _344
REMARK  141  A    between atoms: _344  and  _345
REMARK  142  A    between atoms: _349  and  _351
REMARK  143  A    between atoms: _351  and  _352
REMARK  144  A    between atoms: _351  and  _354
REMARK  145  A    between atoms: _354  and  _355
REMARK  146  A    between atoms: _359  and  _360
REMARK  147  A    between atoms: _365  and  _367
REMARK  148  A    between atoms: _367  and  _368
REMARK  149  A    between atoms: _370  and  _372
REMARK  150  A    between atoms: _372  and  _373
REMARK  151  A    between atoms: _372  and  _375
REMARK  152  A    between atoms: _375  and  _376
REMARK  153  A    between atoms: _376  and  _377
REMARK  154  A    between atoms: _377  and  _378
REMARK  155  A    between atoms: _378  and  _379
REMARK  156  A    between atoms: _383  and  _385
REMARK  157  A    between atoms: _385  and  _386
REMARK  158  A    between atoms: _385  and  _388
REMARK  159  A    between atoms: _388  and  _389
REMARK  160  A    between atoms: _392  and  _394
REMARK  161  A    between atoms: _394  and  _395
REMARK  162  A    between atoms: _394  and  _397
REMARK  163  A    between atoms: _397  and  _398
REMARK  164  A    between atoms: _401  and  _403
REMARK  165  A    between atoms: _403  and  _404
REMARK  166  A    between atoms: _403  and  _406
REMARK  167  A    between atoms: _406  and  _407
REMARK  168  A    between atoms: _407  and  _408
REMARK  169  A    between atoms: _411  and  _413
REMARK  170  A    between atoms: _413  and  _414
REMARK  171  A    between atoms: _413  and  _416
REMARK  172  A    between atoms: _416  and  _417
REMARK  173  A    between atoms: _417  and  _418
REMARK  174  A    between atoms: _421  and  _423
REMARK  175  A    between atoms: _423  and  _424
REMARK  176  A    between atoms: _423  and  _426
REMARK  177  A    between atoms: _426  and  _427
REMARK  178  A    between atoms: _432  and  _434
REMARK  179  A    between atoms: _434  and  _435
REMARK  180  A    between atoms: _434  and  _437
REMARK  181  A    between atoms: _437  and  _438
REMARK                            x       y       z     vdW  Elec       q    Type
REMARK                         _______ _______ _______ _____ _____    ______ ____
ROOT
ATOM      1  C   THR A   4       8.064  18.458  14.728  0.00  0.00    +0.243 C 
ATOM      2  N   THR A   5       6.789  18.769  14.527  0.00  0.00    -0.295 N 
ATOM      3  H   THR A   5       6.244  19.222  15.288  0.00  0.00    +0.150 HD
ATOM      4  O   THR A   4       8.763  17.883  13.892  0.00  0.00    -0.273 OA
ENDROOT
BRANCH   1   5
ATOM      5  CA  THR A   4       8.635  18.822  16.092  0.00  0.00    +0.176 C 
BRANCH   5   8
ATOM      6  C   ALA A   3       8.491  16.947  17.627  0.00  0.00    +0.241 C 
ATOM      7  O   ALA A   3       7.485  17.401  18.185  0.00  0.00    -0.273 OA
ATOM      8  N   THR A   4       9.160  17.591  16.678  0.00  0.00    -0.295 N 
ATOM      9  H   THR A   4      10.071  17.214  16.347  0.00  0.00    +0.150 HD
BRANCH   6  10
ATOM     10  CA  ALA A   3       9.040  15.587  18.024  0.00  0.00    +0.149 C 
ATOM     11  CB  ALA A   3       8.607  14.533  16.999  0.00  0.00    +0.031 C 
BRANCH  10  14
ATOM     12  C   THR A   2       9.258  15.302  20.437  0.00  0.00    +0.243 C 
ATOM     13  O   THR A   2      10.505  15.282  20.422  0.00  0.00    -0.273 OA
ATOM     14  N   ALA A   3       8.495  15.298  19.344  0.00  0.00    -0.297 N 
ATOM     15  H   ALA A   3       7.482  15.082  19.436  0.00  0.00    +0.150 HD
BRANCH  12  16
ATOM     16  CA  THR A   2       8.495  15.373  21.755  0.00  0.00    +0.176 C 
BRANCH  16  18
ATOM     17  C   GLY A   1       7.835  17.667  21.247  0.00  0.00    +0.240 C 
ATOM     18  N   THR A   2       7.495  16.434  21.629  0.00  0.00    -0.295 N 
ATOM     19  H   THR A   2       6.499  16.223  21.841  0.00  0.00    +0.150 HD
ATOM     20  O   GLY A   1       9.012  17.998  21.002  0.00  0.00    -0.274 OA
BRANCH  17  21
ATOM     21  CA  GLY A   1       6.694  18.664  21.126  0.00  0.00    +0.169 C 
BRANCH  21  22
ATOM     22  N   GLY A   1       6.941  19.574  20.016  0.00  0.00    -0.236 NA
ATOM     23  H   GLY A   1       7.174  19.180  19.082  0.00  0.00    +0.142 HD
ENDBRANCH  21  22
ENDBRANCH  17  21
ENDBRANCH  16  18
BRANCH  16  24
ATOM     24  CB  THR A   2       7.829  14.015  22.035  0.00  0.00    +0.137 C 
ATOM     25  CG2 THR A   2       8.895  12.928  22.227  0.00  0.00    +0.034 C 
BRANCH  24  26
ATOM     26  OG1 THR A   2       7.078  14.126  23.241  0.00  0.00    -0.382 OA
ATOM     27  HG1 THR A   2       7.685  14.367  23.985  0.00  0.00    +0.210 HD
ENDBRANCH  24  26
ENDBRANCH  16  24
ENDBRANCH  12  16
ENDBRANCH  10  14
ENDBRANCH   6  10
ENDBRANCH   5   8
BRANCH   5  28
ATOM     28  CB  THR A   4       9.720  19.897  15.985  0.00  0.00    +0.137 C 
ATOM     29  CG2 THR A   4       9.204  21.103  15.180  0.00  0.00    +0.034 C 
BRANCH  28  30
ATOM     30  OG1 THR A   4      10.063  20.345  17.305  0.00  0.00    -0.382 OA
ATOM     31  HG1 THR A   4      10.765  21.041  17.244  0.00  0.00    +0.210 HD
ENDBRANCH  28  30
ENDBRANCH   5  28
ENDBRANCH   1   5
BRANCH   2  32
ATOM     32  CA  THR A   5       6.145  18.483  13.251  0.00  0.00    +0.176 C 
BRANCH  32  33
ATOM     33  C   THR A   5       5.896  19.756  12.464  0.00  0.00    +0.243 C 
ATOM     34  O   THR A   5       5.690  20.820  13.045  0.00  0.00    -0.273 OA
ATOM     35  N   VAL A   6       5.991  19.631  11.142  0.00  0.00    -0.297 N 
ATOM     36  H   VAL A   6       6.408  18.762  10.751  0.00  0.00    +0.150 HD
BRANCH  35  37
ATOM     37  CA  VAL A   6       5.531  20.669  10.218  0.00  0.00    +0.149 C 
BRANCH  37  38
ATOM     38  C   VAL A   6       4.394  20.057   9.424  0.00  0.00    +0.241 C 
ATOM     39  N   ASP A   7       3.264  20.764   9.353  0.00  0.00    -0.298 N 
ATOM     40  H   ASP A   7       3.216  21.689   9.825  0.00  0.00    +0.150 HD
ATOM     41  O   VAL A   6       4.539  18.941   8.920  0.00  0.00    -0.273 OA
BRANCH  39  42
ATOM     42  CA  ASP A   7       2.086  20.271   8.626  0.00  0.00    +0.148 C 
BRANCH  42  43
ATOM     43  C   ASP A   7       1.629  21.345   7.654  0.00  0.00    +0.227 C 
ATOM     44  O   ASP A   7       1.488  22.504   8.032  0.00  0.00    -0.286 OA
ENDBRANCH  42  43
BRANCH  42  45
ATOM     45  CB  ASP A   7       0.936  19.916   9.578  0.00  0.00    +0.142 C 
BRANCH  45  46
ATOM     46  CG  ASP A   7       1.185  18.633  10.341  0.00  0.00    +0.367 C 
ATOM     47  OD2 ASP A   7       1.044  18.659  11.577  0.00  0.00    -0.246 OA
ATOM     48  OD1 ASP A   7       1.498  17.621   9.703  0.00  0.00    -0.246 OA
ENDBRANCH  45  46
ENDBRANCH  42  45
ENDBRANCH  39  42
ENDBRANCH  37  38
BRANCH  37  49
ATOM     49  CB  VAL A   6       6.648  21.108   9.264  0.00  0.00    +0.027 C 
ATOM     50  CG2 VAL A   6       7.901  21.521  10.049  0.00  0.00    +0.002 C 
ATOM     51  CG1 VAL A   6       6.185  22.253   8.353  0.00  0.00    +0.002 C 
ENDBRANCH  37  49
ENDBRANCH  35  37
ENDBRANCH  32  33
BRANCH  32  52
ATOM     52  CB  THR A   5       4.794  17.751  13.450  0.00  0.00    +0.137 C 
ATOM     53  CG2 THR A   5       5.028  16.312  13.961  0.00  0.00    +0.034 C 
BRANCH  52  54
ATOM     54  OG1 THR A   5       3.968  18.492  14.355  0.00  0.00    -0.382 OA
ATOM     55  HG1 THR A   5       3.107  18.019  14.477  0.00  0.00    +0.210 HD
ENDBRANCH  52  54
ENDBRANCH  32  52
ENDBRANCH   2  32
TORSDOF 23
REMARK  Name = ../refined-set-2016/3bex/3bex_pocket.pdb
REMARK  181 active torsions:
REMARK  status: ('A' for Active; 'I' for Inactive)
REMARK    1  A    between atoms: _1  and  _3
REMARK    2  A    between atoms: _3  and  _4
REMARK    3  A    between atoms: _3  and  _6
REMARK    4  A    between atoms: _6  and  _7
REMARK    5  A    between atoms: _10  and  _12
REMARK    6  A    between atoms: _12  and  _13
REMARK    7  A    between atoms: _12  and  _15
REMARK    8  A    between atoms: _18  and  _20
REMARK    9  A    between atoms: _20  and  _21
REMARK   10  A    between atoms: _23  and  _25
REMARK   11  A    between atoms: _25  and  _26
REMARK   12  A    between atoms: _25  and  _28
REMARK   13  A    between atoms: _28  and  _29
REMARK   14  A    between atoms: _34  and  _36
REMARK   15  A    between atoms: _36  and  _37
REMARK   16  A    between atoms: _36  and  _39
REMARK   17  A    between atoms: _39  and  _40
REMARK   18  A    between atoms: _43  and  _45
REMARK   19  A    between atoms: _45  and  _46
REMARK   20  A    between atoms: _45  and  _48
REMARK   21  A    between atoms: _48  and  _49
REMARK   22  A    between atoms: _51  and  _53
REMARK   23  A    between atoms: _53  and  _54
REMARK   24  A    between atoms: _53  and  _56
REMARK   25  A    between atoms: _59  and  _61
REMARK   26  A    between atoms: _61  and  _62
REMARK   27  A    between atoms: _61  and  _64
REMARK   28  A    between atoms: _68  and  _69
REMARK   29  A    between atoms: _74  and  _76
REMARK   30  A    between atoms: _76  and  _77
REMARK   31  A    between atoms: _76  and  _79
REMARK   32  A    between atoms: _82  and  _84
REMARK   33  A    between atoms: _84  and  _85
REMARK   34  A    between atoms: _84  and  _87
REMARK   35  A    between atoms: _87  and  _88
REMARK   36  A    between atoms: _94  and  _95
REMARK   37  A    between atoms: _100  and  _102
REMARK   38  A    between atoms: _102  and  _103
REMARK   39  A    between atoms: _102  and  _105
REMARK   40  A    between atoms: _105  and  _106
REMARK   41  A    between atoms: _108  and  _110
REMARK   42  A    between atoms: _110  and  _111
REMARK   43  A    between atoms: _110  and  _113
REMARK   44  A    between atoms: _113  and  _114
REMARK   45  A    between atoms: _114  and  _115
REMARK   46  A    between atoms: _118  and  _120
REMARK   47  A    between atoms: _120  and  _121
REMARK   48  A    between atoms: _120  and  _123
REMARK   49  A    between atoms: _126  and  _128
REMARK   50  A    between atoms: _128  and  _129
REMARK   51  A    between atoms: _131  and  _133
REMARK   52  A    between atoms: _133  and  _134
REMARK   53  A    between atoms: _137  and  _139
REMARK   54  A    between atoms: _139  and  _140
REMARK   55  A    between atoms: _139  and  _142
REMARK   56  A    between atoms: _142  and  _143
REMARK   57  A    between atoms: _146  and  _148
REMARK   58  A    between atoms: _148  and  _149
REMARK   59  A    between atoms: _148  and  _151
REMARK   60  A    between atoms: _151  and  _152
REMARK   61  A    between atoms: _152  and  _153
REMARK   62  A    between atoms: _153  and  _154
REMARK   63  A    between atoms: _163  and  _165
REMARK   64  A    between atoms: _165  and  _166
REMARK   65  A    between atoms: _165  and  _168
REMARK   66  A    between atoms: _171  and  _173
REMARK   67  A    between atoms: _173  and  _174
REMARK   68  A    between atoms: _173  and  _176
REMARK   69  A    between atoms: _176  and  _177
REMARK   70  A    between atoms: _182  and  _184
REMARK   71  A    between atoms: _184  and  _185
REMARK   72  A    between atoms: _184  and  _187
REMARK   73  A    between atoms: _187  and  _188
REMARK   74  A    between atoms: _191  and  _193
REMARK   75  A    between atoms: _193  and  _194
REMARK   76  A    between atoms: _196  and  _198
REMARK   77  A    between atoms: _198  and  _199
REMARK   78  A    between atoms: _198  and  _201
REMARK   79  A    between atoms: _201  and  _202
REMARK   80  A    between atoms: _205  and  _207
REMARK   81  A    between atoms: _207  and  _208
REMARK   82  A    between atoms: _211  and  _213
REMARK   83  A    between atoms: _213  and  _214
REMARK   84  A    between atoms: _213  and  _216
REMARK   85  A    between atoms: _216  and  _217
REMARK   86  A    between atoms: _220  and  _222
REMARK   87  A    between atoms: _222  and  _223
REMARK   88  A    between atoms: _222  and  _225
REMARK   89  A    between atoms: _225  and  _226
REMARK   90  A    between atoms: _229  and  _231
REMARK   91  A    between atoms: _231  and  _232
REMARK   92  A    between atoms: _231  and  _234
REMARK   93  A    between atoms: _237  and  _239
REMARK   94  A    between atoms: _239  and  _240
REMARK   95  A    between atoms: _239  and  _242
REMARK   96  A    between atoms: _242  and  _243
REMARK   97  A    between atoms: _246  and  _248
REMARK   98  A    between atoms: _248  and  _249
REMARK   99  A    between atoms: _248  and  _251
REMARK  100  A    between atoms: _251  and  _252
REMARK  101  A    between atoms: _257  and  _258
REMARK  102  A    between atoms: _260  and  _262
REMARK  103  A    between atoms: _262  and  _263
REMARK  104  A    between atoms: _265  and  _267
REMARK  105  A    between atoms: _267  and  _268
REMARK  106  A    between atoms: _271  and  _273
REMARK  107  A    between atoms: _273  and  _274
REMARK  108  A    between atoms: _273  and  _276
REMARK  109  A    between atoms: _276  and  _277
REMARK  110  A    between atoms: _280  and  _282
REMARK  111  A    between atoms: _282  and  _283
REMARK  112  A    between atoms: _282  and  _285
REMARK  113  A    between atoms: _285  and  _286
REMARK  114  A    between atoms: _289  and  _291
REMARK  115  A    between atoms: _291  and  _292
REMARK  116  A    between atoms: _291  and  _294
REMARK  117  A    between atoms: _294  and  _295
REMARK  118  A    between atoms: _295  and  _296
REMARK  119  A    between atoms: _298  and  _300
REMARK  120  A    between atoms: _300  and  _301
REMARK  121  A    between atoms: _300  and  _303
REMARK  122  A    between atoms: _303  and  _304
REMARK  123  A    between atoms: _307  and  _309
REMARK  124  A    between atoms: _309  and  _310
REMARK  125  A    between atoms: _309  and  _312
REMARK  126  A    between atoms: _312  and  _313
REMARK  127  A    between atoms: _316  and  _318
REMARK  128  A    between atoms: _318  and  _319
REMARK  129  A    between atoms: _321  and  _323
REMARK  130  A    between atoms: _323  and  _324
REMARK  131  A    between atoms: _323  and  _326
REMARK  132  A    between atoms: _326  and  _327
REMARK  133  A    between atoms: _330  and  _332
REMARK  134  A    between atoms: _332  and  _333
REMARK  135  A    between atoms: _336  and  _338
REMARK  136  A    between atoms: _338  and  _339
REMARK  137  A    between atoms: _338  and  _341
REMARK  138  A    between atoms: _341  and  _342
REMARK  139  A    between atoms: _342  and  _343
REMARK  140  A    between atoms: _343  and  _344
REMARK  141  A    between atoms: _344  and  _345
REMARK  142  A    between atoms: _349  and  _351
REMARK  143  A    between atoms: _351  and  _352
REMARK  144  A    between atoms: _351  and  _354
REMARK  145  A    between atoms: _354  and  _355
REMARK  146  A    between atoms: _359  and  _360
REMARK  147  A    between atoms: _365  and  _367
REMARK  148  A    between atoms: _367  and  _368
REMARK  149  A    between atoms: _370  and  _372
REMARK  150  A    between atoms: _372  and  _373
REMARK  151  A    between atoms: _372  and  _375
REMARK  152  A    between atoms: _375  and  _376
REMARK  153  A    between atoms: _376  and  _377
REMARK  154  A    between atoms: _377  and  _378
REMARK  155  A    between atoms: _378  and  _379
REMARK  156  A    between atoms: _383  and  _385
REMARK  157  A    between atoms: _385  and  _386
REMARK  158  A    between atoms: _385  and  _388
REMARK  159  A    between atoms: _388  and  _389
REMARK  160  A    between atoms: _392  and  _394
REMARK  161  A    between atoms: _394  and  _395
REMARK  162  A    between atoms: _394  and  _397
REMARK  163  A    between atoms: _397  and  _398
REMARK  164  A    between atoms: _401  and  _403
REMARK  165  A    between atoms: _403  and  _404
REMARK  166  A    between atoms: _403  and  _406
REMARK  167  A    between atoms: _406  and  _407
REMARK  168  A    between atoms: _407  and  _408
REMARK  169  A    between atoms: _411  and  _413
REMARK  170  A    between atoms: _413  and  _414
REMARK  171  A    between atoms: _413  and  _416
REMARK  172  A    between atoms: _416  and  _417
REMARK  173  A    between atoms: _417  and  _418
REMARK  174  A    between atoms: _421  and  _423
REMARK  175  A    between atoms: _423  and  _424
REMARK  176  A    between atoms: _423  and  _426
REMARK  177  A    between atoms: _426  and  _427
REMARK  178  A    between atoms: _432  and  _434
REMARK  179  A    between atoms: _434  and  _435
REMARK  180  A    between atoms: _434  and  _437
REMARK  181  A    between atoms: _437  and  _438
REMARK                            x       y       z     vdW  Elec       q    Type
REMARK                         _______ _______ _______ _____ _____    ______ ____
ROOT
ATOM      1  CG  TYR A   1      -2.577  16.887   5.835  0.00  0.00    -0.020 A 
ATOM      2  CD2 TYR A   1      -1.881  17.767   6.646  0.00  0.00    -0.001 A 
ATOM      3  CE2 TYR A   1      -0.740  17.357   7.327  0.00  0.00    +0.036 A 
ATOM      4  CZ  TYR A   1      -0.301  16.066   7.212  0.00  0.00    +0.134 A 
ATOM      5  CE1 TYR A   1      -0.957  15.167   6.398  0.00  0.00    +0.036 A 
ATOM      6  CD1 TYR A   1      -2.106  15.577   5.720  0.00  0.00    -0.001 A 
ENDROOT
BRANCH   4   7
ATOM      7  OH  TYR A   1       0.840  15.686   7.890  0.00  0.00    -0.506 OA
ATOM      8  HH  TYR A   1       1.176  16.450   8.422  0.00  0.00    +0.292 HD
ENDBRANCH   4   7
BRANCH   1   9
ATOM      9  CB  TYR A   1      -3.822  17.338   5.098  0.00  0.00    +0.051 C 
BRANCH   9  10
ATOM     10  CA  TYR A   1      -3.539  18.310   3.953  0.00  0.00    +0.137 C 
BRANCH  10  11
ATOM     11  N   TYR A   1      -4.765  18.643   3.226  0.00  0.00    -0.239 NA
ATOM     12  H   TYR A   1      -5.613  18.054   3.351  0.00  0.00    +0.142 HD
ENDBRANCH  10  11
BRANCH  10  13
ATOM     13  C   TYR A   1      -2.552  17.706   2.963  0.00  0.00    +0.224 C 
ATOM     14  O   TYR A   1      -2.841  16.687   2.308  0.00  0.00    -0.287 OA
ENDBRANCH  10  13
ENDBRANCH   9  10
ENDBRANCH   1   9
TORSDOF 5
REMARK  Name = ../refined-set-2016/3bex/3bex_pocket.pdb
REMARK  181 active torsions:
REMARK  status: ('A' for Active; 'I' for Inactive)
REMARK    1  A    between atoms: _1  and  _3
REMARK    2  A    between atoms: _3  and  _4
REMARK    3  A    between atoms: _3  and  _6
REMARK    4  A    between atoms: _6  and  _7
REMARK    5  A    between atoms: _10  and  _12
REMARK    6  A    between atoms: _12  and  _13
REMARK    7  A    between atoms: _12  and  _15
REMARK    8  A    between atoms: _18  and  _20
REMARK    9  A    between atoms: _20  and  _21
REMARK   10  A    between atoms: _23  and  _25
REMARK   11  A    between atoms: _25  and  _26
REMARK   12  A    between atoms: _25  and  _28
REMARK   13  A    between atoms: _28  and  _29
REMARK   14  A    between atoms: _34  and  _36
REMARK   15  A    between atoms: _36  and  _37
REMARK   16  A    between atoms: _36  and  _39
REMARK   17  A    between atoms: _39  and  _40
REMARK   18  A    between atoms: _43  and  _45
REMARK   19  A    between atoms: _45  and  _46
REMARK   20  A    between atoms: _45  and  _48
REMARK   21  A    between atoms: _48  and  _49
REMARK   22  A    between atoms: _51  and  _53
REMARK   23  A    between atoms: _53  and  _54
REMARK   24  A    between atoms: _53  and  _56
REMARK   25  A    between atoms: _59  and  _61
REMARK   26  A    between atoms: _61  and  _62
REMARK   27  A    between atoms: _61  and  _64
REMARK   28  A    between atoms: _68  and  _69
REMARK   29  A    between atoms: _74  and  _76
REMARK   30  A    between atoms: _76  and  _77
REMARK   31  A    between atoms: _76  and  _79
REMARK   32  A    between atoms: _82  and  _84
REMARK   33  A    between atoms: _84  and  _85
REMARK   34  A    between atoms: _84  and  _87
REMARK   35  A    between atoms: _87  and  _88
REMARK   36  A    between atoms: _94  and  _95
REMARK   37  A    between atoms: _100  and  _102
REMARK   38  A    between atoms: _102  and  _103
REMARK   39  A    between atoms: _102  and  _105
REMARK   40  A    between atoms: _105  and  _106
REMARK   41  A    between atoms: _108  and  _110
REMARK   42  A    between atoms: _110  and  _111
REMARK   43  A    between atoms: _110  and  _113
REMARK   44  A    between atoms: _113  and  _114
REMARK   45  A    between atoms: _114  and  _115
REMARK   46  A    between atoms: _118  and  _120
REMARK   47  A    between atoms: _120  and  _121
REMARK   48  A    between atoms: _120  and  _123
REMARK   49  A    between atoms: _126  and  _128
REMARK   50  A    between atoms: _128  and  _129
REMARK   51  A    between atoms: _131  and  _133
REMARK   52  A    between atoms: _133  and  _134
REMARK   53  A    between atoms: _137  and  _139
REMARK   54  A    between atoms: _139  and  _140
REMARK   55  A    between atoms: _139  and  _142
REMARK   56  A    between atoms: _142  and  _143
REMARK   57  A    between atoms: _146  and  _148
REMARK   58  A    between atoms: _148  and  _149
REMARK   59  A    between atoms: _148  and  _151
REMARK   60  A    between atoms: _151  and  _152
REMARK   61  A    between atoms: _152  and  _153
REMARK   62  A    between atoms: _153  and  _154
REMARK   63  A    between atoms: _163  and  _165
REMARK   64  A    between atoms: _165  and  _166
REMARK   65  A    between atoms: _165  and  _168
REMARK   66  A    between atoms: _171  and  _173
REMARK   67  A    between atoms: _173  and  _174
REMARK   68  A    between atoms: _173  and  _176
REMARK   69  A    between atoms: _176  and  _177
REMARK   70  A    between atoms: _182  and  _184
REMARK   71  A    between atoms: _184  and  _185
REMARK   72  A    between atoms: _184  and  _187
REMARK   73  A    between atoms: _187  and  _188
REMARK   74  A    between atoms: _191  and  _193
REMARK   75  A    between atoms: _193  and  _194
REMARK   76  A    between atoms: _196  and  _198
REMARK   77  A    between atoms: _198  and  _199
REMARK   78  A    between atoms: _198  and  _201
REMARK   79  A    between atoms: _201  and  _202
REMARK   80  A    between atoms: _205  and  _207
REMARK   81  A    between atoms: _207  and  _208
REMARK   82  A    between atoms: _211  and  _213
REMARK   83  A    between atoms: _213  and  _214
REMARK   84  A    between atoms: _213  and  _216
REMARK   85  A    between atoms: _216  and  _217
REMARK   86  A    between atoms: _220  and  _222
REMARK   87  A    between atoms: _222  and  _223
REMARK   88  A    between atoms: _222  and  _225
REMARK   89  A    between atoms: _225  and  _226
REMARK   90  A    between atoms: _229  and  _231
REMARK   91  A    between atoms: _231  and  _232
REMARK   92  A    between atoms: _231  and  _234
REMARK   93  A    between atoms: _237  and  _239
REMARK   94  A    between atoms: _239  and  _240
REMARK   95  A    between atoms: _239  and  _242
REMARK   96  A    between atoms: _242  and  _243
REMARK   97  A    between atoms: _246  and  _248
REMARK   98  A    between atoms: _248  and  _249
REMARK   99  A    between atoms: _248  and  _251
REMARK  100  A    between atoms: _251  and  _252
REMARK  101  A    between atoms: _257  and  _258
REMARK  102  A    between atoms: _260  and  _262
REMARK  103  A    between atoms: _262  and  _263
REMARK  104  A    between atoms: _265  and  _267
REMARK  105  A    between atoms: _267  and  _268
REMARK  106  A    between atoms: _271  and  _273
REMARK  107  A    between atoms: _273  and  _274
REMARK  108  A    between atoms: _273  and  _276
REMARK  109  A    between atoms: _276  and  _277
REMARK  110  A    between atoms: _280  and  _282
REMARK  111  A    between atoms: _282  and  _283
REMARK  112  A    between atoms: _282  and  _285
REMARK  113  A    between atoms: _285  and  _286
REMARK  114  A    between atoms: _289  and  _291
REMARK  115  A    between atoms: _291  and  _292
REMARK  116  A    between atoms: _291  and  _294
REMARK  117  A    between atoms: _294  and  _295
REMARK  118  A    between atoms: _295  and  _296
REMARK  119  A    between atoms: _298  and  _300
REMARK  120  A    between atoms: _300  and  _301
REMARK  121  A    between atoms: _300  and  _303
REMARK  122  A    between atoms: _303  and  _304
REMARK  123  A    between atoms: _307  and  _309
REMARK  124  A    between atoms: _309  and  _310
REMARK  125  A    between atoms: _309  and  _312
REMARK  126  A    between atoms: _312  and  _313
REMARK  127  A    between atoms: _316  and  _318
REMARK  128  A    between atoms: _318  and  _319
REMARK  129  A    between atoms: _321  and  _323
REMARK  130  A    between atoms: _323  and  _324
REMARK  131  A    between atoms: _323  and  _326
REMARK  132  A    between atoms: _326  and  _327
REMARK  133  A    between atoms: _330  and  _332
REMARK  134  A    between atoms: _332  and  _333
REMARK  135  A    between atoms: _336  and  _338
REMARK  136  A    between atoms: _338  and  _339
REMARK  137  A    between atoms: _338  and  _341
REMARK  138  A    between atoms: _341  and  _342
REMARK  139  A    between atoms: _342  and  _343
REMARK  140  A    between atoms: _343  and  _344
REMARK  141  A    between atoms: _344  and  _345
REMARK  142  A    between atoms: _349  and  _351
REMARK  143  A    between atoms: _351  and  _352
REMARK  144  A    between atoms: _351  and  _354
REMARK  145  A    between atoms: _354  and  _355
REMARK  146  A    between atoms: _359  and  _360
REMARK  147  A    between atoms: _365  and  _367
REMARK  148  A    between atoms: _367  and  _368
REMARK  149  A    between atoms: _370  and  _372
REMARK  150  A    between atoms: _372  and  _373
REMARK  151  A    between atoms: _372  and  _375
REMARK  152  A    between atoms: _375  and  _376
REMARK  153  A    between atoms: _376  and  _377
REMARK  154  A    between atoms: _377  and  _378
REMARK  155  A    between atoms: _378  and  _379
REMARK  156  A    between atoms: _383  and  _385
REMARK  157  A    between atoms: _385  and  _386
REMARK  158  A    between atoms: _385  and  _388
REMARK  159  A    between atoms: _388  and  _389
REMARK  160  A    between atoms: _392  and  _394
REMARK  161  A    between atoms: _394  and  _395
REMARK  162  A    between atoms: _394  and  _397
REMARK  163  A    between atoms: _397  and  _398
REMARK  164  A    between atoms: _401  and  _403
REMARK  165  A    between atoms: _403  and  _404
REMARK  166  A    between atoms: _403  and  _406
REMARK  167  A    between atoms: _406  and  _407
REMARK  168  A    between atoms: _407  and  _408
REMARK  169  A    between atoms: _411  and  _413
REMARK  170  A    between atoms: _413  and  _414
REMARK  171  A    between atoms: _413  and  _416
REMARK  172  A    between atoms: _416  and  _417
REMARK  173  A    between atoms: _417  and  _418
REMARK  174  A    between atoms: _421  and  _423
REMARK  175  A    between atoms: _423  and  _424
REMARK  176  A    between atoms: _423  and  _426
REMARK  177  A    between atoms: _426  and  _427
REMARK  178  A    between atoms: _432  and  _434
REMARK  179  A    between atoms: _434  and  _435
REMARK  180  A    between atoms: _434  and  _437
REMARK  181  A    between atoms: _437  and  _438
REMARK                            x       y       z     vdW  Elec       q    Type
REMARK                         _______ _______ _______ _____ _____    ______ ____
ROOT
ATOM      1  CA  ILE A   3       9.060  15.402  11.387  0.00  0.00    +0.149 C 
ENDROOT
BRANCH   1   4
ATOM      2  C   ALA A   2       8.011  16.636   9.560  0.00  0.00    +0.241 C 
ATOM      3  O   ALA A   2       7.147  17.130  10.287  0.00  0.00    -0.273 OA
ATOM      4  N   ILE A   3       8.917  15.751   9.973  0.00  0.00    -0.297 N 
ATOM      5  H   ILE A   3       9.538  15.297   9.273  0.00  0.00    +0.150 HD
BRANCH   2   6
ATOM      6  CA  ALA A   2       8.090  17.013   8.093  0.00  0.00    +0.149 C 
ATOM      7  CB  ALA A   2       9.109  18.118   7.894  0.00  0.00    +0.031 C 
BRANCH   6   9
ATOM      8  C   GLY A   1       6.312  17.187   6.424  0.00  0.00    +0.240 C 
ATOM      9  N   ALA A   2       6.777  17.458   7.647  0.00  0.00    -0.297 N 
ATOM     10  H   ALA A   2       6.182  18.005   8.302  0.00  0.00    +0.150 HD
ATOM     11  O   GLY A   1       6.904  16.487   5.611  0.00  0.00    -0.274 OA
BRANCH   8  12
ATOM     12  CA  GLY A   1       4.959  17.778   6.108  0.00  0.00    +0.169 C 
BRANCH  12  13
ATOM     13  N   GLY A   1       4.102  16.907   5.305  0.00  0.00    -0.236 NA
ATOM     14  H   GLY A   1       4.476  16.021   4.909  0.00  0.00    +0.142 HD
ENDBRANCH  12  13
ENDBRANCH   8  12
ENDBRANCH   6   9
ENDBRANCH   2   6
ENDBRANCH   1   4
BRANCH   1  15
ATOM     15  C   ILE A   3      10.544  15.557  11.731  0.00  0.00    +0.241 C 
ATOM     16  N   LEU A   4      10.814  16.289  12.815  0.00  0.00    -0.298 N 
ATOM     17  H   LEU A   4      10.019  16.721  13.327  0.00  0.00    +0.150 HD
ATOM     18  O   ILE A   3      11.396  15.015  11.036  0.00  0.00    -0.273 OA
BRANCH  16  19
ATOM     19  CA  LEU A   4      12.173  16.516  13.322  0.00  0.00    +0.137 C 
BRANCH  19  20
ATOM     20  C   LEU A   4      12.197  16.049  14.778  0.00  0.00    +0.227 C 
ATOM     21  O   LEU A   4      11.168  16.079  15.451  0.00  0.00    -0.286 OA
ENDBRANCH  19  20
BRANCH  19  22
ATOM     22  CB  LEU A   4      12.516  18.016  13.370  0.00  0.00    +0.028 C 
BRANCH  22  23
ATOM     23  CG  LEU A   4      12.214  19.220  12.457  0.00  0.00    +0.002 C 
ATOM     24  CD2 LEU A   4      13.473  19.989  12.016  0.00  0.00    +0.000 C 
ATOM     25  CD1 LEU A   4      11.247  19.016  11.321  0.00  0.00    +0.000 C 
ENDBRANCH  22  23
ENDBRANCH  19  22
ENDBRANCH  16  19
ENDBRANCH   1  15
BRANCH   1  26
ATOM     26  CB  ILE A   3       8.633  13.953  11.623  0.00  0.00    +0.027 C 
ATOM     27  CG2 ILE A   3       8.996  13.506  13.067  0.00  0.00    +0.002 C 
BRANCH  26  28
ATOM     28  CG1 ILE A   3       7.133  13.768  11.383  0.00  0.00    +0.002 C 
ATOM     29  CD1 ILE A   3       6.753  12.308  11.257  0.00  0.00    +0.000 C 
ENDBRANCH  26  28
ENDBRANCH   1  26
TORSDOF 12
REMARK  Name = ../refined-set-2016/3bex/3bex_pocket.pdb
REMARK  181 active torsions:
REMARK  status: ('A' for Active; 'I' for Inactive)
REMARK    1  A    between atoms: _1  and  _3
REMARK    2  A    between atoms: _3  and  _4
REMARK    3  A    between atoms: _3  and  _6
REMARK    4  A    between atoms: _6  and  _7
REMARK    5  A    between atoms: _10  and  _12
REMARK    6  A    between atoms: _12  and  _13
REMARK    7  A    between atoms: _12  and  _15
REMARK    8  A    between atoms: _18  and  _20
REMARK    9  A    between atoms: _20  and  _21
REMARK   10  A    between atoms: _23  and  _25
REMARK   11  A    between atoms: _25  and  _26
REMARK   12  A    between atoms: _25  and  _28
REMARK   13  A    between atoms: _28  and  _29
REMARK   14  A    between atoms: _34  and  _36
REMARK   15  A    between atoms: _36  and  _37
REMARK   16  A    between atoms: _36  and  _39
REMARK   17  A    between atoms: _39  and  _40
REMARK   18  A    between atoms: _43  and  _45
REMARK   19  A    between atoms: _45  and  _46
REMARK   20  A    between atoms: _45  and  _48
REMARK   21  A    between atoms: _48  and  _49
REMARK   22  A    between atoms: _51  and  _53
REMARK   23  A    between atoms: _53  and  _54
REMARK   24  A    between atoms: _53  and  _56
REMARK   25  A    between atoms: _59  and  _61
REMARK   26  A    between atoms: _61  and  _62
REMARK   27  A    between atoms: _61  and  _64
REMARK   28  A    between atoms: _68  and  _69
REMARK   29  A    between atoms: _74  and  _76
REMARK   30  A    between atoms: _76  and  _77
REMARK   31  A    between atoms: _76  and  _79
REMARK   32  A    between atoms: _82  and  _84
REMARK   33  A    between atoms: _84  and  _85
REMARK   34  A    between atoms: _84  and  _87
REMARK   35  A    between atoms: _87  and  _88
REMARK   36  A    between atoms: _94  and  _95
REMARK   37  A    between atoms: _100  and  _102
REMARK   38  A    between atoms: _102  and  _103
REMARK   39  A    between atoms: _102  and  _105
REMARK   40  A    between atoms: _105  and  _106
REMARK   41  A    between atoms: _108  and  _110
REMARK   42  A    between atoms: _110  and  _111
REMARK   43  A    between atoms: _110  and  _113
REMARK   44  A    between atoms: _113  and  _114
REMARK   45  A    between atoms: _114  and  _115
REMARK   46  A    between atoms: _118  and  _120
REMARK   47  A    between atoms: _120  and  _121
REMARK   48  A    between atoms: _120  and  _123
REMARK   49  A    between atoms: _126  and  _128
REMARK   50  A    between atoms: _128  and  _129
REMARK   51  A    between atoms: _131  and  _133
REMARK   52  A    between atoms: _133  and  _134
REMARK   53  A    between atoms: _137  and  _139
REMARK   54  A    between atoms: _139  and  _140
REMARK   55  A    between atoms: _139  and  _142
REMARK   56  A    between atoms: _142  and  _143
REMARK   57  A    between atoms: _146  and  _148
REMARK   58  A    between atoms: _148  and  _149
REMARK   59  A    between atoms: _148  and  _151
REMARK   60  A    between atoms: _151  and  _152
REMARK   61  A    between atoms: _152  and  _153
REMARK   62  A    between atoms: _153  and  _154
REMARK   63  A    between atoms: _163  and  _165
REMARK   64  A    between atoms: _165  and  _166
REMARK   65  A    between atoms: _165  and  _168
REMARK   66  A    between atoms: _171  and  _173
REMARK   67  A    between atoms: _173  and  _174
REMARK   68  A    between atoms: _173  and  _176
REMARK   69  A    between atoms: _176  and  _177
REMARK   70  A    between atoms: _182  and  _184
REMARK   71  A    between atoms: _184  and  _185
REMARK   72  A    between atoms: _184  and  _187
REMARK   73  A    between atoms: _187  and  _188
REMARK   74  A    between atoms: _191  and  _193
REMARK   75  A    between atoms: _193  and  _194
REMARK   76  A    between atoms: _196  and  _198
REMARK   77  A    between atoms: _198  and  _199
REMARK   78  A    between atoms: _198  and  _201
REMARK   79  A    between atoms: _201  and  _202
REMARK   80  A    between atoms: _205  and  _207
REMARK   81  A    between atoms: _207  and  _208
REMARK   82  A    between atoms: _211  and  _213
REMARK   83  A    between atoms: _213  and  _214
REMARK   84  A    between atoms: _213  and  _216
REMARK   85  A    between atoms: _216  and  _217
REMARK   86  A    between atoms: _220  and  _222
REMARK   87  A    between atoms: _222  and  _223
REMARK   88  A    between atoms: _222  and  _225
REMARK   89  A    between atoms: _225  and  _226
REMARK   90  A    between atoms: _229  and  _231
REMARK   91  A    between atoms: _231  and  _232
REMARK   92  A    between atoms: _231  and  _234
REMARK   93  A    between atoms: _237  and  _239
REMARK   94  A    between atoms: _239  and  _240
REMARK   95  A    between atoms: _239  and  _242
REMARK   96  A    between atoms: _242  and  _243
REMARK   97  A    between atoms: _246  and  _248
REMARK   98  A    between atoms: _248  and  _249
REMARK   99  A    between atoms: _248  and  _251
REMARK  100  A    between atoms: _251  and  _252
REMARK  101  A    between atoms: _257  and  _258
REMARK  102  A    between atoms: _260  and  _262
REMARK  103  A    between atoms: _262  and  _263
REMARK  104  A    between atoms: _265  and  _267
REMARK  105  A    between atoms: _267  and  _268
REMARK  106  A    between atoms: _271  and  _273
REMARK  107  A    between atoms: _273  and  _274
REMARK  108  A    between atoms: _273  and  _276
REMARK  109  A    between atoms: _276  and  _277
REMARK  110  A    between atoms: _280  and  _282
REMARK  111  A    between atoms: _282  and  _283
REMARK  112  A    between atoms: _282  and  _285
REMARK  113  A    between atoms: _285  and  _286
REMARK  114  A    between atoms: _289  and  _291
REMARK  115  A    between atoms: _291  and  _292
REMARK  116  A    between atoms: _291  and  _294
REMARK  117  A    between atoms: _294  and  _295
REMARK  118  A    between atoms: _295  and  _296
REMARK  119  A    between atoms: _298  and  _300
REMARK  120  A    between atoms: _300  and  _301
REMARK  121  A    between atoms: _300  and  _303
REMARK  122  A    between atoms: _303  and  _304
REMARK  123  A    between atoms: _307  and  _309
REMARK  124  A    between atoms: _309  and  _310
REMARK  125  A    between atoms: _309  and  _312
REMARK  126  A    between atoms: _312  and  _313
REMARK  127  A    between atoms: _316  and  _318
REMARK  128  A    between atoms: _318  and  _319
REMARK  129  A    between atoms: _321  and  _323
REMARK  130  A    between atoms: _323  and  _324
REMARK  131  A    between atoms: _323  and  _326
REMARK  132  A    between atoms: _326  and  _327
REMARK  133  A    between atoms: _330  and  _332
REMARK  134  A    between atoms: _332  and  _333
REMARK  135  A    between atoms: _336  and  _338
REMARK  136  A    between atoms: _338  and  _339
REMARK  137  A    between atoms: _338  and  _341
REMARK  138  A    between atoms: _341  and  _342
REMARK  139  A    between atoms: _342  and  _343
REMARK  140  A    between atoms: _343  and  _344
REMARK  141  A    between atoms: _344  and  _345
REMARK  142  A    between atoms: _349  and  _351
REMARK  143  A    between atoms: _351  and  _352
REMARK  144  A    between atoms: _351  and  _354
REMARK  145  A    between atoms: _354  and  _355
REMARK  146  A    between atoms: _359  and  _360
REMARK  147  A    between atoms: _365  and  _367
REMARK  148  A    between atoms: _367  and  _368
REMARK  149  A    between atoms: _370  and  _372
REMARK  150  A    between atoms: _372  and  _373
REMARK  151  A    between atoms: _372  and  _375
REMARK  152  A    between atoms: _375  and  _376
REMARK  153  A    between atoms: _376  and  _377
REMARK  154  A    between atoms: _377  and  _378
REMARK  155  A    between atoms: _378  and  _379
REMARK  156  A    between atoms: _383  and  _385
REMARK  157  A    between atoms: _385  and  _386
REMARK  158  A    between atoms: _385  and  _388
REMARK  159  A    between atoms: _388  and  _389
REMARK  160  A    between atoms: _392  and  _394
REMARK  161  A    between atoms: _394  and  _395
REMARK  162  A    between atoms: _394  and  _397
REMARK  163  A    between atoms: _397  and  _398
REMARK  164  A    between atoms: _401  and  _403
REMARK  165  A    between atoms: _403  and  _404
REMARK  166  A    between atoms: _403  and  _406
REMARK  167  A    between atoms: _406  and  _407
REMARK  168  A    between atoms: _407  and  _408
REMARK  169  A    between atoms: _411  and  _413
REMARK  170  A    between atoms: _413  and  _414
REMARK  171  A    between atoms: _413  and  _416
REMARK  172  A    between atoms: _416  and  _417
REMARK  173  A    between atoms: _417  and  _418
REMARK  174  A    between atoms: _421  and  _423
REMARK  175  A    between atoms: _423  and  _424
REMARK  176  A    between atoms: _423  and  _426
REMARK  177  A    between atoms: _426  and  _427
REMARK  178  A    between atoms: _432  and  _434
REMARK  179  A    between atoms: _434  and  _435
REMARK  180  A    between atoms: _434  and  _437
REMARK  181  A    between atoms: _437  and  _438
REMARK                            x       y       z     vdW  Elec       q    Type
REMARK                         _______ _______ _______ _____ _____    ______ ____
ROOT
ATOM      1  CA  MET A   1      14.991  14.714  22.329  0.00  0.00    +0.134 C 
ENDROOT
BRANCH   1   2
ATOM      2  N   MET A   1      14.546  15.952  22.987  0.00  0.00    -0.239 NA
ATOM      3  H   MET A   1      13.636  16.378  22.718  0.00  0.00    +0.142 HD
ENDBRANCH   1   2
BRANCH   1   4
ATOM      4  C   MET A   1      16.422  14.854  21.773  0.00  0.00    +0.224 C 
ATOM      5  O   MET A   1      17.250  13.933  21.898  0.00  0.00    -0.287 OA
ENDBRANCH   1   4
BRANCH   1   6
ATOM      6  CB  MET A   1      14.011  14.344  21.200  0.00  0.00    +0.037 C 
BRANCH   6   7
ATOM      7  CG  MET A   1      14.394  13.089  20.463  0.00  0.00    +0.059 C 
BRANCH   7   8
ATOM      8  SD  MET A   1      13.197  12.684  19.167  0.00  0.00    -0.139 S 
ATOM      9  CE  MET A   1      11.836  12.079  20.176  0.00  0.00    +0.069 C 
ENDBRANCH   7   8
ENDBRANCH   6   7
ENDBRANCH   1   6
TORSDOF 5
REMARK  Name = ../refined-set-2016/3bex/3bex_pocket.pdb
REMARK  181 active torsions:
REMARK  status: ('A' for Active; 'I' for Inactive)
REMARK    1  A    between atoms: _1  and  _3
REMARK    2  A    between atoms: _3  and  _4
REMARK    3  A    between atoms: _3  and  _6
REMARK    4  A    between atoms: _6  and  _7
REMARK    5  A    between atoms: _10  and  _12
REMARK    6  A    between atoms: _12  and  _13
REMARK    7  A    between atoms: _12  and  _15
REMARK    8  A    between atoms: _18  and  _20
REMARK    9  A    between atoms: _20  and  _21
REMARK   10  A    between atoms: _23  and  _25
REMARK   11  A    between atoms: _25  and  _26
REMARK   12  A    between atoms: _25  and  _28
REMARK   13  A    between atoms: _28  and  _29
REMARK   14  A    between atoms: _34  and  _36
REMARK   15  A    between atoms: _36  and  _37
REMARK   16  A    between atoms: _36  and  _39
REMARK   17  A    between atoms: _39  and  _40
REMARK   18  A    between atoms: _43  and  _45
REMARK   19  A    between atoms: _45  and  _46
REMARK   20  A    between atoms: _45  and  _48
REMARK   21  A    between atoms: _48  and  _49
REMARK   22  A    between atoms: _51  and  _53
REMARK   23  A    between atoms: _53  and  _54
REMARK   24  A    between atoms: _53  and  _56
REMARK   25  A    between atoms: _59  and  _61
REMARK   26  A    between atoms: _61  and  _62
REMARK   27  A    between atoms: _61  and  _64
REMARK   28  A    between atoms: _68  and  _69
REMARK   29  A    between atoms: _74  and  _76
REMARK   30  A    between atoms: _76  and  _77
REMARK   31  A    between atoms: _76  and  _79
REMARK   32  A    between atoms: _82  and  _84
REMARK   33  A    between atoms: _84  and  _85
REMARK   34  A    between atoms: _84  and  _87
REMARK   35  A    between atoms: _87  and  _88
REMARK   36  A    between atoms: _94  and  _95
REMARK   37  A    between atoms: _100  and  _102
REMARK   38  A    between atoms: _102  and  _103
REMARK   39  A    between atoms: _102  and  _105
REMARK   40  A    between atoms: _105  and  _106
REMARK   41  A    between atoms: _108  and  _110
REMARK   42  A    between atoms: _110  and  _111
REMARK   43  A    between atoms: _110  and  _113
REMARK   44  A    between atoms: _113  and  _114
REMARK   45  A    between atoms: _114  and  _115
REMARK   46  A    between atoms: _118  and  _120
REMARK   47  A    between atoms: _120  and  _121
REMARK   48  A    between atoms: _120  and  _123
REMARK   49  A    between atoms: _126  and  _128
REMARK   50  A    between atoms: _128  and  _129
REMARK   51  A    between atoms: _131  and  _133
REMARK   52  A    between atoms: _133  and  _134
REMARK   53  A    between atoms: _137  and  _139
REMARK   54  A    between atoms: _139  and  _140
REMARK   55  A    between atoms: _139  and  _142
REMARK   56  A    between atoms: _142  and  _143
REMARK   57  A    between atoms: _146  and  _148
REMARK   58  A    between atoms: _148  and  _149
REMARK   59  A    between atoms: _148  and  _151
REMARK   60  A    between atoms: _151  and  _152
REMARK   61  A    between atoms: _152  and  _153
REMARK   62  A    between atoms: _153  and  _154
REMARK   63  A    between atoms: _163  and  _165
REMARK   64  A    between atoms: _165  and  _166
REMARK   65  A    between atoms: _165  and  _168
REMARK   66  A    between atoms: _171  and  _173
REMARK   67  A    between atoms: _173  and  _174
REMARK   68  A    between atoms: _173  and  _176
REMARK   69  A    between atoms: _176  and  _177
REMARK   70  A    between atoms: _182  and  _184
REMARK   71  A    between atoms: _184  and  _185
REMARK   72  A    between atoms: _184  and  _187
REMARK   73  A    between atoms: _187  and  _188
REMARK   74  A    between atoms: _191  and  _193
REMARK   75  A    between atoms: _193  and  _194
REMARK   76  A    between atoms: _196  and  _198
REMARK   77  A    between atoms: _198  and  _199
REMARK   78  A    between atoms: _198  and  _201
REMARK   79  A    between atoms: _201  and  _202
REMARK   80  A    between atoms: _205  and  _207
REMARK   81  A    between atoms: _207  and  _208
REMARK   82  A    between atoms: _211  and  _213
REMARK   83  A    between atoms: _213  and  _214
REMARK   84  A    between atoms: _213  and  _216
REMARK   85  A    between atoms: _216  and  _217
REMARK   86  A    between atoms: _220  and  _222
REMARK   87  A    between atoms: _222  and  _223
REMARK   88  A    between atoms: _222  and  _225
REMARK   89  A    between atoms: _225  and  _226
REMARK   90  A    between atoms: _229  and  _231
REMARK   91  A    between atoms: _231  and  _232
REMARK   92  A    between atoms: _231  and  _234
REMARK   93  A    between atoms: _237  and  _239
REMARK   94  A    between atoms: _239  and  _240
REMARK   95  A    between atoms: _239  and  _242
REMARK   96  A    between atoms: _242  and  _243
REMARK   97  A    between atoms: _246  and  _248
REMARK   98  A    between atoms: _248  and  _249
REMARK   99  A    between atoms: _248  and  _251
REMARK  100  A    between atoms: _251  and  _252
REMARK  101  A    between atoms: _257  and  _258
REMARK  102  A    between atoms: _260  and  _262
REMARK  103  A    between atoms: _262  and  _263
REMARK  104  A    between atoms: _265  and  _267
REMARK  105  A    between atoms: _267  and  _268
REMARK  106  A    between atoms: _271  and  _273
REMARK  107  A    between atoms: _273  and  _274
REMARK  108  A    between atoms: _273  and  _276
REMARK  109  A    between atoms: _276  and  _277
REMARK  110  A    between atoms: _280  and  _282
REMARK  111  A    between atoms: _282  and  _283
REMARK  112  A    between atoms: _282  and  _285
REMARK  113  A    between atoms: _285  and  _286
REMARK  114  A    between atoms: _289  and  _291
REMARK  115  A    between atoms: _291  and  _292
REMARK  116  A    between atoms: _291  and  _294
REMARK  117  A    between atoms: _294  and  _295
REMARK  118  A    between atoms: _295  and  _296
REMARK  119  A    between atoms: _298  and  _300
REMARK  120  A    between atoms: _300  and  _301
REMARK  121  A    between atoms: _300  and  _303
REMARK  122  A    between atoms: _303  and  _304
REMARK  123  A    between atoms: _307  and  _309
REMARK  124  A    between atoms: _309  and  _310
REMARK  125  A    between atoms: _309  and  _312
REMARK  126  A    between atoms: _312  and  _313
REMARK  127  A    between atoms: _316  and  _318
REMARK  128  A    between atoms: _318  and  _319
REMARK  129  A    between atoms: _321  and  _323
REMARK  130  A    between atoms: _323  and  _324
REMARK  131  A    between atoms: _323  and  _326
REMARK  132  A    between atoms: _326  and  _327
REMARK  133  A    between atoms: _330  and  _332
REMARK  134  A    between atoms: _332  and  _333
REMARK  135  A    between atoms: _336  and  _338
REMARK  136  A    between atoms: _338  and  _339
REMARK  137  A    between atoms: _338  and  _341
REMARK  138  A    between atoms: _341  and  _342
REMARK  139  A    between atoms: _342  and  _343
REMARK  140  A    between atoms: _343  and  _344
REMARK  141  A    between atoms: _344  and  _345
REMARK  142  A    between atoms: _349  and  _351
REMARK  143  A    between atoms: _351  and  _352
REMARK  144  A    between atoms: _351  and  _354
REMARK  145  A    between atoms: _354  and  _355
REMARK  146  A    between atoms: _359  and  _360
REMARK  147  A    between atoms: _365  and  _367
REMARK  148  A    between atoms: _367  and  _368
REMARK  149  A    between atoms: _370  and  _372
REMARK  150  A    between atoms: _372  and  _373
REMARK  151  A    between atoms: _372  and  _375
REMARK  152  A    between atoms: _375  and  _376
REMARK  153  A    between atoms: _376  and  _377
REMARK  154  A    between atoms: _377  and  _378
REMARK  155  A    between atoms: _378  and  _379
REMARK  156  A    between atoms: _383  and  _385
REMARK  157  A    between atoms: _385  and  _386
REMARK  158  A    between atoms: _385  and  _388
REMARK  159  A    between atoms: _388  and  _389
REMARK  160  A    between atoms: _392  and  _394
REMARK  161  A    between atoms: _394  and  _395
REMARK  162  A    between atoms: _394  and  _397
REMARK  163  A    between atoms: _397  and  _398
REMARK  164  A    between atoms: _401  and  _403
REMARK  165  A    between atoms: _403  and  _404
REMARK  166  A    between atoms: _403  and  _406
REMARK  167  A    between atoms: _406  and  _407
REMARK  168  A    between atoms: _407  and  _408
REMARK  169  A    between atoms: _411  and  _413
REMARK  170  A    between atoms: _413  and  _414
REMARK  171  A    between atoms: _413  and  _416
REMARK  172  A    between atoms: _416  and  _417
REMARK  173  A    between atoms: _417  and  _418
REMARK  174  A    between atoms: _421  and  _423
REMARK  175  A    between atoms: _423  and  _424
REMARK  176  A    between atoms: _423  and  _426
REMARK  177  A    between atoms: _426  and  _427
REMARK  178  A    between atoms: _432  and  _434
REMARK  179  A    between atoms: _434  and  _435
REMARK  180  A    between atoms: _434  and  _437
REMARK  181  A    between atoms: _437  and  _438
REMARK                            x       y       z     vdW  Elec       q    Type
REMARK                         _______ _______ _______ _____ _____    ______ ____
ROOT
ATOM      1  CA  THR A   1      -4.284  20.475  19.415  0.00  0.00    +0.160 C 
ENDROOT
BRANCH   1   2
ATOM      2  N   THR A   1      -3.971  21.910  19.433  0.00  0.00    -0.237 NA
ATOM      3  H   THR A   1      -3.108  22.250  19.904  0.00  0.00    +0.142 HD
ENDBRANCH   1   2
BRANCH   1   4
ATOM      4  C   THR A   1      -5.585  20.174  20.164  0.00  0.00    +0.227 C 
ATOM      5  O   THR A   1      -6.464  19.487  19.638  0.00  0.00    -0.287 OA
ENDBRANCH   1   4
BRANCH   1   6
ATOM      6  CB  THR A   1      -3.127  19.631  19.978  0.00  0.00    +0.134 C 
ATOM      7  CG2 THR A   1      -3.375  18.117  19.775  0.00  0.00    +0.034 C 
BRANCH   6   8
ATOM      8  OG1 THR A   1      -1.899  20.005  19.333  0.00  0.00    -0.383 OA
ATOM      9  HG1 THR A   1      -1.157  19.460  19.697  0.00  0.00    +0.210 HD
ENDBRANCH   6   8
ENDBRANCH   1   6
TORSDOF 4
REMARK  Name = ../refined-set-2016/3bex/3bex_pocket.pdb
REMARK  181 active torsions:
REMARK  status: ('A' for Active; 'I' for Inactive)
REMARK    1  A    between atoms: _1  and  _3
REMARK    2  A    between atoms: _3  and  _4
REMARK    3  A    between atoms: _3  and  _6
REMARK    4  A    between atoms: _6  and  _7
REMARK    5  A    between atoms: _10  and  _12
REMARK    6  A    between atoms: _12  and  _13
REMARK    7  A    between atoms: _12  and  _15
REMARK    8  A    between atoms: _18  and  _20
REMARK    9  A    between atoms: _20  and  _21
REMARK   10  A    between atoms: _23  and  _25
REMARK   11  A    between atoms: _25  and  _26
REMARK   12  A    between atoms: _25  and  _28
REMARK   13  A    between atoms: _28  and  _29
REMARK   14  A    between atoms: _34  and  _36
REMARK   15  A    between atoms: _36  and  _37
REMARK   16  A    between atoms: _36  and  _39
REMARK   17  A    between atoms: _39  and  _40
REMARK   18  A    between atoms: _43  and  _45
REMARK   19  A    between atoms: _45  and  _46
REMARK   20  A    between atoms: _45  and  _48
REMARK   21  A    between atoms: _48  and  _49
REMARK   22  A    between atoms: _51  and  _53
REMARK   23  A    between atoms: _53  and  _54
REMARK   24  A    between atoms: _53  and  _56
REMARK   25  A    between atoms: _59  and  _61
REMARK   26  A    between atoms: _61  and  _62
REMARK   27  A    between atoms: _61  and  _64
REMARK   28  A    between atoms: _68  and  _69
REMARK   29  A    between atoms: _74  and  _76
REMARK   30  A    between atoms: _76  and  _77
REMARK   31  A    between atoms: _76  and  _79
REMARK   32  A    between atoms: _82  and  _84
REMARK   33  A    between atoms: _84  and  _85
REMARK   34  A    between atoms: _84  and  _87
REMARK   35  A    between atoms: _87  and  _88
REMARK   36  A    between atoms: _94  and  _95
REMARK   37  A    between atoms: _100  and  _102
REMARK   38  A    between atoms: _102  and  _103
REMARK   39  A    between atoms: _102  and  _105
REMARK   40  A    between atoms: _105  and  _106
REMARK   41  A    between atoms: _108  and  _110
REMARK   42  A    between atoms: _110  and  _111
REMARK   43  A    between atoms: _110  and  _113
REMARK   44  A    between atoms: _113  and  _114
REMARK   45  A    between atoms: _114  and  _115
REMARK   46  A    between atoms: _118  and  _120
REMARK   47  A    between atoms: _120  and  _121
REMARK   48  A    between atoms: _120  and  _123
REMARK   49  A    between atoms: _126  and  _128
REMARK   50  A    between atoms: _128  and  _129
REMARK   51  A    between atoms: _131  and  _133
REMARK   52  A    between atoms: _133  and  _134
REMARK   53  A    between atoms: _137  and  _139
REMARK   54  A    between atoms: _139  and  _140
REMARK   55  A    between atoms: _139  and  _142
REMARK   56  A    between atoms: _142  and  _143
REMARK   57  A    between atoms: _146  and  _148
REMARK   58  A    between atoms: _148  and  _149
REMARK   59  A    between atoms: _148  and  _151
REMARK   60  A    between atoms: _151  and  _152
REMARK   61  A    between atoms: _152  and  _153
REMARK   62  A    between atoms: _153  and  _154
REMARK   63  A    between atoms: _163  and  _165
REMARK   64  A    between atoms: _165  and  _166
REMARK   65  A    between atoms: _165  and  _168
REMARK   66  A    between atoms: _171  and  _173
REMARK   67  A    between atoms: _173  and  _174
REMARK   68  A    between atoms: _173  and  _176
REMARK   69  A    between atoms: _176  and  _177
REMARK   70  A    between atoms: _182  and  _184
REMARK   71  A    between atoms: _184  and  _185
REMARK   72  A    between atoms: _184  and  _187
REMARK   73  A    between atoms: _187  and  _188
REMARK   74  A    between atoms: _191  and  _193
REMARK   75  A    between atoms: _193  and  _194
REMARK   76  A    between atoms: _196  and  _198
REMARK   77  A    between atoms: _198  and  _199
REMARK   78  A    between atoms: _198  and  _201
REMARK   79  A    between atoms: _201  and  _202
REMARK   80  A    between atoms: _205  and  _207
REMARK   81  A    between atoms: _207  and  _208
REMARK   82  A    between atoms: _211  and  _213
REMARK   83  A    between atoms: _213  and  _214
REMARK   84  A    between atoms: _213  and  _216
REMARK   85  A    between atoms: _216  and  _217
REMARK   86  A    between atoms: _220  and  _222
REMARK   87  A    between atoms: _222  and  _223
REMARK   88  A    between atoms: _222  and  _225
REMARK   89  A    between atoms: _225  and  _226
REMARK   90  A    between atoms: _229  and  _231
REMARK   91  A    between atoms: _231  and  _232
REMARK   92  A    between atoms: _231  and  _234
REMARK   93  A    between atoms: _237  and  _239
REMARK   94  A    between atoms: _239  and  _240
REMARK   95  A    between atoms: _239  and  _242
REMARK   96  A    between atoms: _242  and  _243
REMARK   97  A    between atoms: _246  and  _248
REMARK   98  A    between atoms: _248  and  _249
REMARK   99  A    between atoms: _248  and  _251
REMARK  100  A    between atoms: _251  and  _252
REMARK  101  A    between atoms: _257  and  _258
REMARK  102  A    between atoms: _260  and  _262
REMARK  103  A    between atoms: _262  and  _263
REMARK  104  A    between atoms: _265  and  _267
REMARK  105  A    between atoms: _267  and  _268
REMARK  106  A    between atoms: _271  and  _273
REMARK  107  A    between atoms: _273  and  _274
REMARK  108  A    between atoms: _273  and  _276
REMARK  109  A    between atoms: _276  and  _277
REMARK  110  A    between atoms: _280  and  _282
REMARK  111  A    between atoms: _282  and  _283
REMARK  112  A    between atoms: _282  and  _285
REMARK  113  A    between atoms: _285  and  _286
REMARK  114  A    between atoms: _289  and  _291
REMARK  115  A    between atoms: _291  and  _292
REMARK  116  A    between atoms: _291  and  _294
REMARK  117  A    between atoms: _294  and  _295
REMARK  118  A    between atoms: _295  and  _296
REMARK  119  A    between atoms: _298  and  _300
REMARK  120  A    between atoms: _300  and  _301
REMARK  121  A    between atoms: _300  and  _303
REMARK  122  A    between atoms: _303  and  _304
REMARK  123  A    between atoms: _307  and  _309
REMARK  124  A    between atoms: _309  and  _310
REMARK  125  A    between atoms: _309  and  _312
REMARK  126  A    between atoms: _312  and  _313
REMARK  127  A    between atoms: _316  and  _318
REMARK  128  A    between atoms: _318  and  _319
REMARK  129  A    between atoms: _321  and  _323
REMARK  130  A    between atoms: _323  and  _324
REMARK  131  A    between atoms: _323  and  _326
REMARK  132  A    between atoms: _326  and  _327
REMARK  133  A    between atoms: _330  and  _332
REMARK  134  A    between atoms: _332  and  _333
REMARK  135  A    between atoms: _336  and  _338
REMARK  136  A    between atoms: _338  and  _339
REMARK  137  A    between atoms: _338  and  _341
REMARK  138  A    between atoms: _341  and  _342
REMARK  139  A    between atoms: _342  and  _343
REMARK  140  A    between atoms: _343  and  _344
REMARK  141  A    between atoms: _344  and  _345
REMARK  142  A    between atoms: _349  and  _351
REMARK  143  A    between atoms: _351  and  _352
REMARK  144  A    between atoms: _351  and  _354
REMARK  145  A    between atoms: _354  and  _355
REMARK  146  A    between atoms: _359  and  _360
REMARK  147  A    between atoms: _365  and  _367
REMARK  148  A    between atoms: _367  and  _368
REMARK  149  A    between atoms: _370  and  _372
REMARK  150  A    between atoms: _372  and  _373
REMARK  151  A    between atoms: _372  and  _375
REMARK  152  A    between atoms: _375  and  _376
REMARK  153  A    between atoms: _376  and  _377
REMARK  154  A    between atoms: _377  and  _378
REMARK  155  A    between atoms: _378  and  _379
REMARK  156  A    between atoms: _383  and  _385
REMARK  157  A    between atoms: _385  and  _386
REMARK  158  A    between atoms: _385  and  _388
REMARK  159  A    between atoms: _388  and  _389
REMARK  160  A    between atoms: _392  and  _394
REMARK  161  A    between atoms: _394  and  _395
REMARK  162  A    between atoms: _394  and  _397
REMARK  163  A    between atoms: _397  and  _398
REMARK  164  A    between atoms: _401  and  _403
REMARK  165  A    between atoms: _403  and  _404
REMARK  166  A    between atoms: _403  and  _406
REMARK  167  A    between atoms: _406  and  _407
REMARK  168  A    between atoms: _407  and  _408
REMARK  169  A    between atoms: _411  and  _413
REMARK  170  A    between atoms: _413  and  _414
REMARK  171  A    between atoms: _413  and  _416
REMARK  172  A    between atoms: _416  and  _417
REMARK  173  A    between atoms: _417  and  _418
REMARK  174  A    between atoms: _421  and  _423
REMARK  175  A    between atoms: _423  and  _424
REMARK  176  A    between atoms: _423  and  _426
REMARK  177  A    between atoms: _426  and  _427
REMARK  178  A    between atoms: _432  and  _434
REMARK  179  A    between atoms: _434  and  _435
REMARK  180  A    between atoms: _434  and  _437
REMARK  181  A    between atoms: _437  and  _438
REMARK                            x       y       z     vdW  Elec       q    Type
REMARK                         _______ _______ _______ _____ _____    ______ ____
ROOT
ATOM      1  CA  LEU A   1      12.784   9.547  16.810  0.00  0.00    +0.133 C 
ENDROOT
BRANCH   1   2
ATOM      2  N   LEU A   1      14.215   9.514  17.124  0.00  0.00    -0.239 NA
ATOM      3  H   LEU A   1      14.915   9.648  16.367  0.00  0.00    +0.142 HD
ENDBRANCH   1   2
BRANCH   1   4
ATOM      4  C   LEU A   1      12.132   8.172  16.976  0.00  0.00    +0.224 C 
ATOM      5  O   LEU A   1      11.017   8.042  17.506  0.00  0.00    -0.287 OA
ENDBRANCH   1   4
BRANCH   1   6
ATOM      6  CB  LEU A   1      12.574  10.082  15.394  0.00  0.00    +0.025 C 
BRANCH   6   7
ATOM      7  CG  LEU A   1      12.706  11.605  15.276  0.00  0.00    +0.002 C 
ATOM      8  CD2 LEU A   1      11.478  12.319  15.823  0.00  0.00    +0.000 C 
ATOM      9  CD1 LEU A   1      12.926  11.976  13.803  0.00  0.00    +0.000 C 
ENDBRANCH   6   7
ENDBRANCH   1   6
TORSDOF 4
REMARK  Name = ../refined-set-2016/3bex/3bex_pocket.pdb
REMARK  181 active torsions:
REMARK  status: ('A' for Active; 'I' for Inactive)
REMARK    1  A    between atoms: _1  and  _3
REMARK    2  A    between atoms: _3  and  _4
REMARK    3  A    between atoms: _3  and  _6
REMARK    4  A    between atoms: _6  and  _7
REMARK    5  A    between atoms: _10  and  _12
REMARK    6  A    between atoms: _12  and  _13
REMARK    7  A    between atoms: _12  and  _15
REMARK    8  A    between atoms: _18  and  _20
REMARK    9  A    between atoms: _20  and  _21
REMARK   10  A    between atoms: _23  and  _25
REMARK   11  A    between atoms: _25  and  _26
REMARK   12  A    between atoms: _25  and  _28
REMARK   13  A    between atoms: _28  and  _29
REMARK   14  A    between atoms: _34  and  _36
REMARK   15  A    between atoms: _36  and  _37
REMARK   16  A    between atoms: _36  and  _39
REMARK   17  A    between atoms: _39  and  _40
REMARK   18  A    between atoms: _43  and  _45
REMARK   19  A    between atoms: _45  and  _46
REMARK   20  A    between atoms: _45  and  _48
REMARK   21  A    between atoms: _48  and  _49
REMARK   22  A    between atoms: _51  and  _53
REMARK   23  A    between atoms: _53  and  _54
REMARK   24  A    between atoms: _53  and  _56
REMARK   25  A    between atoms: _59  and  _61
REMARK   26  A    between atoms: _61  and  _62
REMARK   27  A    between atoms: _61  and  _64
REMARK   28  A    between atoms: _68  and  _69
REMARK   29  A    between atoms: _74  and  _76
REMARK   30  A    between atoms: _76  and  _77
REMARK   31  A    between atoms: _76  and  _79
REMARK   32  A    between atoms: _82  and  _84
REMARK   33  A    between atoms: _84  and  _85
REMARK   34  A    between atoms: _84  and  _87
REMARK   35  A    between atoms: _87  and  _88
REMARK   36  A    between atoms: _94  and  _95
REMARK   37  A    between atoms: _100  and  _102
REMARK   38  A    between atoms: _102  and  _103
REMARK   39  A    between atoms: _102  and  _105
REMARK   40  A    between atoms: _105  and  _106
REMARK   41  A    between atoms: _108  and  _110
REMARK   42  A    between atoms: _110  and  _111
REMARK   43  A    between atoms: _110  and  _113
REMARK   44  A    between atoms: _113  and  _114
REMARK   45  A    between atoms: _114  and  _115
REMARK   46  A    between atoms: _118  and  _120
REMARK   47  A    between atoms: _120  and  _121
REMARK   48  A    between atoms: _120  and  _123
REMARK   49  A    between atoms: _126  and  _128
REMARK   50  A    between atoms: _128  and  _129
REMARK   51  A    between atoms: _131  and  _133
REMARK   52  A    between atoms: _133  and  _134
REMARK   53  A    between atoms: _137  and  _139
REMARK   54  A    between atoms: _139  and  _140
REMARK   55  A    between atoms: _139  and  _142
REMARK   56  A    between atoms: _142  and  _143
REMARK   57  A    between atoms: _146  and  _148
REMARK   58  A    between atoms: _148  and  _149
REMARK   59  A    between atoms: _148  and  _151
REMARK   60  A    between atoms: _151  and  _152
REMARK   61  A    between atoms: _152  and  _153
REMARK   62  A    between atoms: _153  and  _154
REMARK   63  A    between atoms: _163  and  _165
REMARK   64  A    between atoms: _165  and  _166
REMARK   65  A    between atoms: _165  and  _168
REMARK   66  A    between atoms: _171  and  _173
REMARK   67  A    between atoms: _173  and  _174
REMARK   68  A    between atoms: _173  and  _176
REMARK   69  A    between atoms: _176  and  _177
REMARK   70  A    between atoms: _182  and  _184
REMARK   71  A    between atoms: _184  and  _185
REMARK   72  A    between atoms: _184  and  _187
REMARK   73  A    between atoms: _187  and  _188
REMARK   74  A    between atoms: _191  and  _193
REMARK   75  A    between atoms: _193  and  _194
REMARK   76  A    between atoms: _196  and  _198
REMARK   77  A    between atoms: _198  and  _199
REMARK   78  A    between atoms: _198  and  _201
REMARK   79  A    between atoms: _201  and  _202
REMARK   80  A    between atoms: _205  and  _207
REMARK   81  A    between atoms: _207  and  _208
REMARK   82  A    between atoms: _211  and  _213
REMARK   83  A    between atoms: _213  and  _214
REMARK   84  A    between atoms: _213  and  _216
REMARK   85  A    between atoms: _216  and  _217
REMARK   86  A    between atoms: _220  and  _222
REMARK   87  A    between atoms: _222  and  _223
REMARK   88  A    between atoms: _222  and  _225
REMARK   89  A    between atoms: _225  and  _226
REMARK   90  A    between atoms: _229  and  _231
REMARK   91  A    between atoms: _231  and  _232
REMARK   92  A    between atoms: _231  and  _234
REMARK   93  A    between atoms: _237  and  _239
REMARK   94  A    between atoms: _239  and  _240
REMARK   95  A    between atoms: _239  and  _242
REMARK   96  A    between atoms: _242  and  _243
REMARK   97  A    between atoms: _246  and  _248
REMARK   98  A    between atoms: _248  and  _249
REMARK   99  A    between atoms: _248  and  _251
REMARK  100  A    between atoms: _251  and  _252
REMARK  101  A    between atoms: _257  and  _258
REMARK  102  A    between atoms: _260  and  _262
REMARK  103  A    between atoms: _262  and  _263
REMARK  104  A    between atoms: _265  and  _267
REMARK  105  A    between atoms: _267  and  _268
REMARK  106  A    between atoms: _271  and  _273
REMARK  107  A    between atoms: _273  and  _274
REMARK  108  A    between atoms: _273  and  _276
REMARK  109  A    between atoms: _276  and  _277
REMARK  110  A    between atoms: _280  and  _282
REMARK  111  A    between atoms: _282  and  _283
REMARK  112  A    between atoms: _282  and  _285
REMARK  113  A    between atoms: _285  and  _286
REMARK  114  A    between atoms: _289  and  _291
REMARK  115  A    between atoms: _291  and  _292
REMARK  116  A    between atoms: _291  and  _294
REMARK  117  A    between atoms: _294  and  _295
REMARK  118  A    between atoms: _295  and  _296
REMARK  119  A    between atoms: _298  and  _300
REMARK  120  A    between atoms: _300  and  _301
REMARK  121  A    between atoms: _300  and  _303
REMARK  122  A    between atoms: _303  and  _304
REMARK  123  A    between atoms: _307  and  _309
REMARK  124  A    between atoms: _309  and  _310
REMARK  125  A    between atoms: _309  and  _312
REMARK  126  A    between atoms: _312  and  _313
REMARK  127  A    between atoms: _316  and  _318
REMARK  128  A    between atoms: _318  and  _319
REMARK  129  A    between atoms: _321  and  _323
REMARK  130  A    between atoms: _323  and  _324
REMARK  131  A    between atoms: _323  and  _326
REMARK  132  A    between atoms: _326  and  _327
REMARK  133  A    between atoms: _330  and  _332
REMARK  134  A    between atoms: _332  and  _333
REMARK  135  A    between atoms: _336  and  _338
REMARK  136  A    between atoms: _338  and  _339
REMARK  137  A    between atoms: _338  and  _341
REMARK  138  A    between atoms: _341  and  _342
REMARK  139  A    between atoms: _342  and  _343
REMARK  140  A    between atoms: _343  and  _344
REMARK  141  A    between atoms: _344  and  _345
REMARK  142  A    between atoms: _349  and  _351
REMARK  143  A    between atoms: _351  and  _352
REMARK  144  A    between atoms: _351  and  _354
REMARK  145  A    between atoms: _354  and  _355
REMARK  146  A    between atoms: _359  and  _360
REMARK  147  A    between atoms: _365  and  _367
REMARK  148  A    between atoms: _367  and  _368
REMARK  149  A    between atoms: _370  and  _372
REMARK  150  A    between atoms: _372  and  _373
REMARK  151  A    between atoms: _372  and  _375
REMARK  152  A    between atoms: _375  and  _376
REMARK  153  A    between atoms: _376  and  _377
REMARK  154  A    between atoms: _377  and  _378
REMARK  155  A    between atoms: _378  and  _379
REMARK  156  A    between atoms: _383  and  _385
REMARK  157  A    between atoms: _385  and  _386
REMARK  158  A    between atoms: _385  and  _388
REMARK  159  A    between atoms: _388  and  _389
REMARK  160  A    between atoms: _392  and  _394
REMARK  161  A    between atoms: _394  and  _395
REMARK  162  A    between atoms: _394  and  _397
REMARK  163  A    between atoms: _397  and  _398
REMARK  164  A    between atoms: _401  and  _403
REMARK  165  A    between atoms: _403  and  _404
REMARK  166  A    between atoms: _403  and  _406
REMARK  167  A    between atoms: _406  and  _407
REMARK  168  A    between atoms: _407  and  _408
REMARK  169  A    between atoms: _411  and  _413
REMARK  170  A    between atoms: _413  and  _414
REMARK  171  A    between atoms: _413  and  _416
REMARK  172  A    between atoms: _416  and  _417
REMARK  173  A    between atoms: _417  and  _418
REMARK  174  A    between atoms: _421  and  _423
REMARK  175  A    between atoms: _423  and  _424
REMARK  176  A    between atoms: _423  and  _426
REMARK  177  A    between atoms: _426  and  _427
REMARK  178  A    between atoms: _432  and  _434
REMARK  179  A    between atoms: _434  and  _435
REMARK  180  A    between atoms: _434  and  _437
REMARK  181  A    between atoms: _437  and  _438
REMARK                            x       y       z     vdW  Elec       q    Type
REMARK                         _______ _______ _______ _____ _____    ______ ____
ROOT
ATOM      1  CA  LYS A   4       4.619   5.197  16.381  0.00  0.00    +0.149 C 
ENDROOT
BRANCH   1   4
ATOM      2  C   ALA A   3       5.436   4.577  18.588  0.00  0.00    +0.241 C 
ATOM      3  O   ALA A   3       5.672   3.415  18.248  0.00  0.00    -0.273 OA
ATOM      4  N   LYS A   4       5.085   5.531  17.725  0.00  0.00    -0.297 N 
ATOM      5  H   LYS A   4       5.144   6.529  18.013  0.00  0.00    +0.150 HD
BRANCH   2   6
ATOM      6  CA  ALA A   3       5.541   4.974  20.044  0.00  0.00    +0.149 C 
ATOM      7  CB  ALA A   3       4.133   5.033  20.691  0.00  0.00    +0.031 C 
BRANCH   6   9
ATOM      8  C   THR A   2       7.550   6.333  20.067  0.00  0.00    +0.243 C 
ATOM      9  N   ALA A   3       6.230   6.242  20.211  0.00  0.00    -0.297 N 
ATOM     10  H   ALA A   3       5.682   7.094  20.447  0.00  0.00    +0.150 HD
ATOM     11  O   THR A   2       8.267   5.363  19.802  0.00  0.00    -0.273 OA
BRANCH   8  12
ATOM     12  CA  THR A   2       8.136   7.734  20.191  0.00  0.00    +0.176 C 
BRANCH  12  15
ATOM     13  C   GLY A   1      10.114   8.415  21.436  0.00  0.00    +0.240 C 
ATOM     14  O   GLY A   1       9.479   9.235  22.079  0.00  0.00    -0.274 OA
ATOM     15  N   THR A   2       9.574   7.685  20.470  0.00  0.00    -0.295 N 
ATOM     16  H   THR A   2      10.183   7.065  19.899  0.00  0.00    +0.150 HD
BRANCH  13  17
ATOM     17  CA  GLY A   1      11.590   8.231  21.681  0.00  0.00    +0.169 C 
BRANCH  17  18
ATOM     18  N   GLY A   1      12.265   7.257  20.832  0.00  0.00    -0.236 NA
ATOM     19  H   GLY A   1      12.626   7.551  19.902  0.00  0.00    +0.142 HD
ENDBRANCH  17  18
ENDBRANCH  13  17
ENDBRANCH  12  15
BRANCH  12  20
ATOM     20  CB  THR A   2       7.815   8.484  18.878  0.00  0.00    +0.137 C 
ATOM     21  CG2 THR A   2       8.454   9.879  18.854  0.00  0.00    +0.034 C 
BRANCH  20  22
ATOM     22  OG1 THR A   2       8.246   7.710  17.752  0.00  0.00    -0.382 OA
ATOM     23  HG1 THR A   2       9.223   7.560  17.811  0.00  0.00    +0.210 HD
ENDBRANCH  20  22
ENDBRANCH  12  20
ENDBRANCH   8  12
ENDBRANCH   6   9
ENDBRANCH   2   6
ENDBRANCH   1   4
BRANCH   1  24
ATOM     24  C   LYS A   4       5.666   5.299  15.274  0.00  0.00    +0.241 C 
ATOM     25  N   LEU A   5       6.784   5.992  15.519  0.00  0.00    -0.297 N 
ATOM     26  H   LEU A   5       6.986   6.349  16.475  0.00  0.00    +0.150 HD
ATOM     27  O   LYS A   4       5.443   4.760  14.189  0.00  0.00    -0.273 OA
BRANCH  25  28
ATOM     28  CA  LEU A   5       7.725   6.241  14.411  0.00  0.00    +0.149 C 
BRANCH  28  29
ATOM     29  C   LEU A   5       8.702   5.094  14.220  0.00  0.00    +0.244 C 
ATOM     30  O   LEU A   5       9.237   4.558  15.203  0.00  0.00    -0.273 OA
ATOM     31  N   PRO A   6       8.913   4.700  12.954  0.00  0.00    -0.273 N 
ATOM     32  CA  PRO A   6       9.865   3.654  12.642  0.00  0.00    +0.140 C 
ATOM     33  CB  PRO A   6       9.459   3.231  11.221  0.00  0.00    +0.030 C 
ATOM     34  CG  PRO A   6       8.926   4.465  10.618  0.00  0.00    +0.024 C 
ATOM     35  CD  PRO A   6       8.254   5.224  11.746  0.00  0.00    +0.094 C 
BRANCH  32  36
ATOM     36  C   PRO A   6      11.253   4.239  12.585  0.00  0.00    +0.227 C 
ATOM     37  O   PRO A   6      11.414   5.459  12.635  0.00  0.00    -0.286 OA
ENDBRANCH  32  36
ENDBRANCH  28  29
BRANCH  28  38
ATOM     38  CB  LEU A   5       8.504   7.531  14.616  0.00  0.00    +0.029 C 
BRANCH  38  39
ATOM     39  CG  LEU A   5       7.677   8.807  14.810  0.00  0.00    +0.002 C 
ATOM     40  CD2 LEU A   5       8.611  10.013  15.019  0.00  0.00    +0.000 C 
ATOM     41  CD1 LEU A   5       6.750   9.002  13.612  0.00  0.00    +0.000 C 
ENDBRANCH  38  39
ENDBRANCH  28  38
ENDBRANCH  25  28
ENDBRANCH   1  24
BRANCH   1  42
ATOM     42  CB  LYS A   4       3.389   6.040  16.020  0.00  0.00    +0.029 C 
BRANCH  42  43
ATOM     43  CG  LYS A   4       2.184   5.812  16.949  0.00  0.00    +0.000 C 
BRANCH  43  44
ATOM     44  CD  LYS A   4       1.069   6.847  16.741  0.00  0.00    -0.024 C 
BRANCH  44  45
ATOM     45  CE  LYS A   4       0.521   6.875  15.332  0.00  0.00    -0.086 C 
BRANCH  45  46
ATOM     46  NZ  LYS A   4      -0.331   5.691  15.017  0.00  0.00    +0.380 N 
ATOM     47  HZ1 LYS A   4      -1.139   5.663  15.671  0.00  0.00    -0.089 HD
ATOM     48  HZ2 LYS A   4       0.232   4.823  15.122  0.00  0.00    -0.089 HD
ATOM     49  HZ3 LYS A   4      -0.678   5.765  14.039  0.00  0.00    -0.089 HD
ENDBRANCH  45  46
ENDBRANCH  44  45
ENDBRANCH  43  44
ENDBRANCH  42  43
ENDBRANCH   1  42
TORSDOF 20
REMARK  Name = ../refined-set-2016/3bex/3bex_pocket.pdb
REMARK  181 active torsions:
REMARK  status: ('A' for Active; 'I' for Inactive)
REMARK    1  A    between atoms: _1  and  _3
REMARK    2  A    between atoms: _3  and  _4
REMARK    3  A    between atoms: _3  and  _6
REMARK    4  A    between atoms: _6  and  _7
REMARK    5  A    between atoms: _10  and  _12
REMARK    6  A    between atoms: _12  and  _13
REMARK    7  A    between atoms: _12  and  _15
REMARK    8  A    between atoms: _18  and  _20
REMARK    9  A    between atoms: _20  and  _21
REMARK   10  A    between atoms: _23  and  _25
REMARK   11  A    between atoms: _25  and  _26
REMARK   12  A    between atoms: _25  and  _28
REMARK   13  A    between atoms: _28  and  _29
REMARK   14  A    between atoms: _34  and  _36
REMARK   15  A    between atoms: _36  and  _37
REMARK   16  A    between atoms: _36  and  _39
REMARK   17  A    between atoms: _39  and  _40
REMARK   18  A    between atoms: _43  and  _45
REMARK   19  A    between atoms: _45  and  _46
REMARK   20  A    between atoms: _45  and  _48
REMARK   21  A    between atoms: _48  and  _49
REMARK   22  A    between atoms: _51  and  _53
REMARK   23  A    between atoms: _53  and  _54
REMARK   24  A    between atoms: _53  and  _56
REMARK   25  A    between atoms: _59  and  _61
REMARK   26  A    between atoms: _61  and  _62
REMARK   27  A    between atoms: _61  and  _64
REMARK   28  A    between atoms: _68  and  _69
REMARK   29  A    between atoms: _74  and  _76
REMARK   30  A    between atoms: _76  and  _77
REMARK   31  A    between atoms: _76  and  _79
REMARK   32  A    between atoms: _82  and  _84
REMARK   33  A    between atoms: _84  and  _85
REMARK   34  A    between atoms: _84  and  _87
REMARK   35  A    between atoms: _87  and  _88
REMARK   36  A    between atoms: _94  and  _95
REMARK   37  A    between atoms: _100  and  _102
REMARK   38  A    between atoms: _102  and  _103
REMARK   39  A    between atoms: _102  and  _105
REMARK   40  A    between atoms: _105  and  _106
REMARK   41  A    between atoms: _108  and  _110
REMARK   42  A    between atoms: _110  and  _111
REMARK   43  A    between atoms: _110  and  _113
REMARK   44  A    between atoms: _113  and  _114
REMARK   45  A    between atoms: _114  and  _115
REMARK   46  A    between atoms: _118  and  _120
REMARK   47  A    between atoms: _120  and  _121
REMARK   48  A    between atoms: _120  and  _123
REMARK   49  A    between atoms: _126  and  _128
REMARK   50  A    between atoms: _128  and  _129
REMARK   51  A    between atoms: _131  and  _133
REMARK   52  A    between atoms: _133  and  _134
REMARK   53  A    between atoms: _137  and  _139
REMARK   54  A    between atoms: _139  and  _140
REMARK   55  A    between atoms: _139  and  _142
REMARK   56  A    between atoms: _142  and  _143
REMARK   57  A    between atoms: _146  and  _148
REMARK   58  A    between atoms: _148  and  _149
REMARK   59  A    between atoms: _148  and  _151
REMARK   60  A    between atoms: _151  and  _152
REMARK   61  A    between atoms: _152  and  _153
REMARK   62  A    between atoms: _153  and  _154
REMARK   63  A    between atoms: _163  and  _165
REMARK   64  A    between atoms: _165  and  _166
REMARK   65  A    between atoms: _165  and  _168
REMARK   66  A    between atoms: _171  and  _173
REMARK   67  A    between atoms: _173  and  _174
REMARK   68  A    between atoms: _173  and  _176
REMARK   69  A    between atoms: _176  and  _177
REMARK   70  A    between atoms: _182  and  _184
REMARK   71  A    between atoms: _184  and  _185
REMARK   72  A    between atoms: _184  and  _187
REMARK   73  A    between atoms: _187  and  _188
REMARK   74  A    between atoms: _191  and  _193
REMARK   75  A    between atoms: _193  and  _194
REMARK   76  A    between atoms: _196  and  _198
REMARK   77  A    between atoms: _198  and  _199
REMARK   78  A    between atoms: _198  and  _201
REMARK   79  A    between atoms: _201  and  _202
REMARK   80  A    between atoms: _205  and  _207
REMARK   81  A    between atoms: _207  and  _208
REMARK   82  A    between atoms: _211  and  _213
REMARK   83  A    between atoms: _213  and  _214
REMARK   84  A    between atoms: _213  and  _216
REMARK   85  A    between atoms: _216  and  _217
REMARK   86  A    between atoms: _220  and  _222
REMARK   87  A    between atoms: _222  and  _223
REMARK   88  A    between atoms: _222  and  _225
REMARK   89  A    between atoms: _225  and  _226
REMARK   90  A    between atoms: _229  and  _231
REMARK   91  A    between atoms: _231  and  _232
REMARK   92  A    between atoms: _231  and  _234
REMARK   93  A    between atoms: _237  and  _239
REMARK   94  A    between atoms: _239  and  _240
REMARK   95  A    between atoms: _239  and  _242
REMARK   96  A    between atoms: _242  and  _243
REMARK   97  A    between atoms: _246  and  _248
REMARK   98  A    between atoms: _248  and  _249
REMARK   99  A    between atoms: _248  and  _251
REMARK  100  A    between atoms: _251  and  _252
REMARK  101  A    between atoms: _257  and  _258
REMARK  102  A    between atoms: _260  and  _262
REMARK  103  A    between atoms: _262  and  _263
REMARK  104  A    between atoms: _265  and  _267
REMARK  105  A    between atoms: _267  and  _268
REMARK  106  A    between atoms: _271  and  _273
REMARK  107  A    between atoms: _273  and  _274
REMARK  108  A    between atoms: _273  and  _276
REMARK  109  A    between atoms: _276  and  _277
REMARK  110  A    between atoms: _280  and  _282
REMARK  111  A    between atoms: _282  and  _283
REMARK  112  A    between atoms: _282  and  _285
REMARK  113  A    between atoms: _285  and  _286
REMARK  114  A    between atoms: _289  and  _291
REMARK  115  A    between atoms: _291  and  _292
REMARK  116  A    between atoms: _291  and  _294
REMARK  117  A    between atoms: _294  and  _295
REMARK  118  A    between atoms: _295  and  _296
REMARK  119  A    between atoms: _298  and  _300
REMARK  120  A    between atoms: _300  and  _301
REMARK  121  A    between atoms: _300  and  _303
REMARK  122  A    between atoms: _303  and  _304
REMARK  123  A    between atoms: _307  and  _309
REMARK  124  A    between atoms: _309  and  _310
REMARK  125  A    between atoms: _309  and  _312
REMARK  126  A    between atoms: _312  and  _313
REMARK  127  A    between atoms: _316  and  _318
REMARK  128  A    between atoms: _318  and  _319
REMARK  129  A    between atoms: _321  and  _323
REMARK  130  A    between atoms: _323  and  _324
REMARK  131  A    between atoms: _323  and  _326
REMARK  132  A    between atoms: _326  and  _327
REMARK  133  A    between atoms: _330  and  _332
REMARK  134  A    between atoms: _332  and  _333
REMARK  135  A    between atoms: _336  and  _338
REMARK  136  A    between atoms: _338  and  _339
REMARK  137  A    between atoms: _338  and  _341
REMARK  138  A    between atoms: _341  and  _342
REMARK  139  A    between atoms: _342  and  _343
REMARK  140  A    between atoms: _343  and  _344
REMARK  141  A    between atoms: _344  and  _345
REMARK  142  A    between atoms: _349  and  _351
REMARK  143  A    between atoms: _351  and  _352
REMARK  144  A    between atoms: _351  and  _354
REMARK  145  A    between atoms: _354  and  _355
REMARK  146  A    between atoms: _359  and  _360
REMARK  147  A    between atoms: _365  and  _367
REMARK  148  A    between atoms: _367  and  _368
REMARK  149  A    between atoms: _370  and  _372
REMARK  150  A    between atoms: _372  and  _373
REMARK  151  A    between atoms: _372  and  _375
REMARK  152  A    between atoms: _375  and  _376
REMARK  153  A    between atoms: _376  and  _377
REMARK  154  A    between atoms: _377  and  _378
REMARK  155  A    between atoms: _378  and  _379
REMARK  156  A    between atoms: _383  and  _385
REMARK  157  A    between atoms: _385  and  _386
REMARK  158  A    between atoms: _385  and  _388
REMARK  159  A    between atoms: _388  and  _389
REMARK  160  A    between atoms: _392  and  _394
REMARK  161  A    between atoms: _394  and  _395
REMARK  162  A    between atoms: _394  and  _397
REMARK  163  A    between atoms: _397  and  _398
REMARK  164  A    between atoms: _401  and  _403
REMARK  165  A    between atoms: _403  and  _404
REMARK  166  A    between atoms: _403  and  _406
REMARK  167  A    between atoms: _406  and  _407
REMARK  168  A    between atoms: _407  and  _408
REMARK  169  A    between atoms: _411  and  _413
REMARK  170  A    between atoms: _413  and  _414
REMARK  171  A    between atoms: _413  and  _416
REMARK  172  A    between atoms: _416  and  _417
REMARK  173  A    between atoms: _417  and  _418
REMARK  174  A    between atoms: _421  and  _423
REMARK  175  A    between atoms: _423  and  _424
REMARK  176  A    between atoms: _423  and  _426
REMARK  177  A    between atoms: _426  and  _427
REMARK  178  A    between atoms: _432  and  _434
REMARK  179  A    between atoms: _434  and  _435
REMARK  180  A    between atoms: _434  and  _437
REMARK  181  A    between atoms: _437  and  _438
REMARK                            x       y       z     vdW  Elec       q    Type
REMARK                         _______ _______ _______ _____ _____    ______ ____
ROOT
ATOM      1  C   THR A   4       7.515   8.995   7.339  0.00  0.00    +0.243 C 
ATOM      2  O   THR A   4       8.244   9.879   7.819  0.00  0.00    -0.273 OA
ATOM      3  N   GLU A   5       7.972   8.030   6.558  0.00  0.00    -0.297 N 
ATOM      4  H   GLU A   5       7.311   7.341   6.146  0.00  0.00    +0.150 HD
ENDROOT
BRANCH   3   5
ATOM      5  CA  GLU A   5       9.401   7.927   6.271  0.00  0.00    +0.149 C 
BRANCH   5   6
ATOM      6  C   GLU A   5       9.870   9.181   5.531  0.00  0.00    +0.241 C 
ATOM      7  O   GLU A   5      10.910   9.744   5.852  0.00  0.00    -0.273 OA
ATOM      8  N   GLU A   6       9.088   9.623   4.545  0.00  0.00    -0.297 N 
ATOM      9  H   GLU A   6       8.239   9.082   4.283  0.00  0.00    +0.150 HD
BRANCH   8  10
ATOM     10  CA  GLU A   6       9.406  10.861   3.824  0.00  0.00    +0.149 C 
BRANCH  10  11
ATOM     11  C   GLU A   6       9.443  12.091   4.741  0.00  0.00    +0.241 C 
ATOM     12  N   ASN A   7       8.502  12.148   5.683  0.00  0.00    -0.297 N 
ATOM     13  H   ASN A   7       7.778  11.403   5.723  0.00  0.00    +0.150 HD
ATOM     14  O   GLU A   6      10.314  12.959   4.608  0.00  0.00    -0.273 OA
BRANCH  12  15
ATOM     15  CA  ASN A   7       8.464  13.233   6.662  0.00  0.00    +0.158 C 
BRANCH  15  16
ATOM     16  C   ASN A   7       9.748  13.290   7.485  0.00  0.00    +0.241 C 
ATOM     17  N   ILE A   8      10.208  12.121   7.925  0.00  0.00    -0.298 N 
ATOM     18  H   ILE A   8       9.691  11.248   7.697  0.00  0.00    +0.150 HD
ATOM     19  O   ASN A   7      10.289  14.357   7.716  0.00  0.00    -0.273 OA
BRANCH  17  20
ATOM     20  CA  ILE A   8      11.424  12.048   8.720  0.00  0.00    +0.137 C 
BRANCH  20  21
ATOM     21  CB  ILE A   8      11.533  10.684   9.424  0.00  0.00    +0.026 C 
ATOM     22  CG2 ILE A   8      12.889  10.522  10.099  0.00  0.00    +0.002 C 
BRANCH  21  23
ATOM     23  CG1 ILE A   8      10.428  10.595  10.480  0.00  0.00    +0.002 C 
ATOM     24  CD1 ILE A   8      10.221   9.234  11.061  0.00  0.00    +0.000 C 
ENDBRANCH  21  23
ENDBRANCH  20  21
BRANCH  20  25
ATOM     25  C   ILE A   8      12.670  12.378   7.903  0.00  0.00    +0.227 C 
ATOM     26  O   ILE A   8      13.548  13.088   8.392  0.00  0.00    -0.286 OA
ENDBRANCH  20  25
ENDBRANCH  17  20
ENDBRANCH  15  16
BRANCH  15  27
ATOM     27  CB  ASN A   7       7.299  13.037   7.633  0.00  0.00    +0.114 C 
BRANCH  27  28
ATOM     28  CG  ASN A   7       6.018  13.650   7.125  0.00  0.00    +0.222 C 
ATOM     29  ND2 ASN A   7       5.519  14.626   7.854  0.00  0.00    -0.329 N 
ATOM     30 HD21 ASN A   7       5.999  14.919   8.729  0.00  0.00    +0.145 HD
ATOM     31 HD22 ASN A   7       4.645  15.104   7.555  0.00  0.00    +0.145 HD
ATOM     32  OD1 ASN A   7       5.488  13.261   6.076  0.00  0.00    -0.275 OA
ENDBRANCH  27  28
ENDBRANCH  15  27
ENDBRANCH  12  15
ENDBRANCH  10  11
BRANCH  10  33
ATOM     33  CB  GLU A   6       8.419  11.088   2.672  0.00  0.00    +0.041 C 
BRANCH  33  34
ATOM     34  CG  GLU A   6       8.617  10.132   1.505  0.00  0.00    +0.116 C 
BRANCH  34  35
ATOM     35  CD  GLU A   6       7.736  10.448   0.311  0.00  0.00    +0.365 C 
ATOM     36  OE2 GLU A   6       7.063  11.512   0.305  0.00  0.00    -0.246 OA
ATOM     37  OE1 GLU A   6       7.748   9.620  -0.639  0.00  0.00    -0.246 OA
ENDBRANCH  34  35
ENDBRANCH  33  34
ENDBRANCH  10  33
ENDBRANCH   8  10
ENDBRANCH   5   6
BRANCH   5  38
ATOM     38  CB  GLU A   5       9.709   6.668   5.457  0.00  0.00    +0.041 C 
BRANCH  38  39
ATOM     39  CG  GLU A   5      11.156   6.627   5.019  0.00  0.00    +0.116 C 
BRANCH  39  40
ATOM     40  CD  GLU A   5      11.640   5.260   4.631  0.00  0.00    +0.365 C 
ATOM     41  OE2 GLU A   5      11.358   4.285   5.376  0.00  0.00    -0.246 OA
ATOM     42  OE1 GLU A   5      12.332   5.175   3.590  0.00  0.00    -0.246 OA
ENDBRANCH  39  40
ENDBRANCH  38  39
ENDBRANCH   5  38
ENDBRANCH   3   5
BRANCH   1  43
ATOM     43  CA  THR A   4       6.017   8.963   7.621  0.00  0.00    +0.176 C 
BRANCH  43  45
ATOM     44  C   ASP A   3       5.304   9.646   5.393  0.00  0.00    +0.241 C 
ATOM     45  N   THR A   4       5.231   8.777   6.398  0.00  0.00    -0.295 N 
ATOM     46  H   THR A   4       4.605   7.951   6.314  0.00  0.00    +0.150 HD
ATOM     47  O   ASP A   3       6.095  10.585   5.365  0.00  0.00    -0.273 OA
BRANCH  44  48
ATOM     48  CA  ASP A   3       4.320   9.439   4.245  0.00  0.00    +0.160 C 
BRANCH  48  50
ATOM     49  C   LYS A   2       3.483  10.970   2.546  0.00  0.00    +0.241 C 
ATOM     50  N   ASP A   3       4.486  10.528   3.301  0.00  0.00    -0.297 N 
ATOM     51  H   ASP A   3       5.419  10.978   3.211  0.00  0.00    +0.150 HD
ATOM     52  O   LYS A   2       2.435  10.358   2.409  0.00  0.00    -0.273 OA
BRANCH  49  53
ATOM     53  CA  LYS A   2       3.702  12.317   1.884  0.00  0.00    +0.149 C 
BRANCH  53  56
ATOM     54  C   GLY A   1       5.317  13.916   2.750  0.00  0.00    +0.240 C 
ATOM     55  O   GLY A   1       4.430  14.538   3.344  0.00  0.00    -0.274 OA
ATOM     56  N   LYS A   2       5.075  12.832   2.017  0.00  0.00    -0.297 N 
ATOM     57  H   LYS A   2       5.859  12.347   1.536  0.00  0.00    +0.150 HD
BRANCH  54  58
ATOM     58  CA  GLY A   1       6.764  14.375   2.814  0.00  0.00    +0.169 C 
BRANCH  58  59
ATOM     59  N   GLY A   1       6.871  15.832   2.829  0.00  0.00    -0.236 NA
ATOM     60  H   GLY A   1       7.091  16.325   3.718  0.00  0.00    +0.142 HD
ENDBRANCH  58  59
ENDBRANCH  54  58
ENDBRANCH  53  56
BRANCH  53  61
ATOM     61  CB  LYS A   2       3.241  12.348   0.420  0.00  0.00    +0.029 C 
BRANCH  61  62
ATOM     62  CG  LYS A   2       2.914  13.779  -0.011  0.00  0.00    +0.000 C 
BRANCH  62  63
ATOM     63  CD  LYS A   2       2.145  13.847  -1.301  0.00  0.00    -0.024 C 
BRANCH  63  64
ATOM     64  CE  LYS A   2       2.005  15.296  -1.715  0.00  0.00    -0.086 C 
BRANCH  64  65
ATOM     65  NZ  LYS A   2       0.894  15.979  -1.006  0.00  0.00    +0.380 N 
ATOM     66  HZ1 LYS A   2       1.069  15.951   0.019  0.00  0.00    -0.089 HD
ATOM     67  HZ2 LYS A   2      -0.001  15.494  -1.219  0.00  0.00    -0.089 HD
ATOM     68  HZ3 LYS A   2       0.838  16.968  -1.323  0.00  0.00    -0.089 HD
ENDBRANCH  64  65
ENDBRANCH  63  64
ENDBRANCH  62  63
ENDBRANCH  61  62
ENDBRANCH  53  61
ENDBRANCH  49  53
ENDBRANCH  48  50
BRANCH  48  69
ATOM     69  CB  ASP A   3       4.439   8.051   3.579  0.00  0.00    +0.143 C 
BRANCH  69  70
ATOM     70  CG  ASP A   3       5.819   7.762   3.001  0.00  0.00    +0.367 C 
ATOM     71  OD2 ASP A   3       6.814   8.385   3.439  0.00  0.00    -0.246 OA
ATOM     72  OD1 ASP A   3       5.898   6.854   2.127  0.00  0.00    -0.246 OA
ENDBRANCH  69  70
ENDBRANCH  48  69
ENDBRANCH  44  48
ENDBRANCH  43  45
BRANCH  43  73
ATOM     73  CB  THR A   4       5.705   7.882   8.659  0.00  0.00    +0.137 C 
ATOM     74  CG2 THR A   4       6.462   8.154   9.954  0.00  0.00    +0.034 C 
BRANCH  73  75
ATOM     75  OG1 THR A   4       4.297   7.916   8.940  0.00  0.00    -0.382 OA
ATOM     76  HG1 THR A   4       4.054   8.808   9.295  0.00  0.00    +0.210 HD
ENDBRANCH  73  75
ENDBRANCH  43  73
ENDBRANCH   1  43
TORSDOF 35
REMARK  Name = ../refined-set-2016/3bex/3bex_pocket.pdb
REMARK  181 active torsions:
REMARK  status: ('A' for Active; 'I' for Inactive)
REMARK    1  A    between atoms: _1  and  _3
REMARK    2  A    between atoms: _3  and  _4
REMARK    3  A    between atoms: _3  and  _6
REMARK    4  A    between atoms: _6  and  _7
REMARK    5  A    between atoms: _10  and  _12
REMARK    6  A    between atoms: _12  and  _13
REMARK    7  A    between atoms: _12  and  _15
REMARK    8  A    between atoms: _18  and  _20
REMARK    9  A    between atoms: _20  and  _21
REMARK   10  A    between atoms: _23  and  _25
REMARK   11  A    between atoms: _25  and  _26
REMARK   12  A    between atoms: _25  and  _28
REMARK   13  A    between atoms: _28  and  _29
REMARK   14  A    between atoms: _34  and  _36
REMARK   15  A    between atoms: _36  and  _37
REMARK   16  A    between atoms: _36  and  _39
REMARK   17  A    between atoms: _39  and  _40
REMARK   18  A    between atoms: _43  and  _45
REMARK   19  A    between atoms: _45  and  _46
REMARK   20  A    between atoms: _45  and  _48
REMARK   21  A    between atoms: _48  and  _49
REMARK   22  A    between atoms: _51  and  _53
REMARK   23  A    between atoms: _53  and  _54
REMARK   24  A    between atoms: _53  and  _56
REMARK   25  A    between atoms: _59  and  _61
REMARK   26  A    between atoms: _61  and  _62
REMARK   27  A    between atoms: _61  and  _64
REMARK   28  A    between atoms: _68  and  _69
REMARK   29  A    between atoms: _74  and  _76
REMARK   30  A    between atoms: _76  and  _77
REMARK   31  A    between atoms: _76  and  _79
REMARK   32  A    between atoms: _82  and  _84
REMARK   33  A    between atoms: _84  and  _85
REMARK   34  A    between atoms: _84  and  _87
REMARK   35  A    between atoms: _87  and  _88
REMARK   36  A    between atoms: _94  and  _95
REMARK   37  A    between atoms: _100  and  _102
REMARK   38  A    between atoms: _102  and  _103
REMARK   39  A    between atoms: _102  and  _105
REMARK   40  A    between atoms: _105  and  _106
REMARK   41  A    between atoms: _108  and  _110
REMARK   42  A    between atoms: _110  and  _111
REMARK   43  A    between atoms: _110  and  _113
REMARK   44  A    between atoms: _113  and  _114
REMARK   45  A    between atoms: _114  and  _115
REMARK   46  A    between atoms: _118  and  _120
REMARK   47  A    between atoms: _120  and  _121
REMARK   48  A    between atoms: _120  and  _123
REMARK   49  A    between atoms: _126  and  _128
REMARK   50  A    between atoms: _128  and  _129
REMARK   51  A    between atoms: _131  and  _133
REMARK   52  A    between atoms: _133  and  _134
REMARK   53  A    between atoms: _137  and  _139
REMARK   54  A    between atoms: _139  and  _140
REMARK   55  A    between atoms: _139  and  _142
REMARK   56  A    between atoms: _142  and  _143
REMARK   57  A    between atoms: _146  and  _148
REMARK   58  A    between atoms: _148  and  _149
REMARK   59  A    between atoms: _148  and  _151
REMARK   60  A    between atoms: _151  and  _152
REMARK   61  A    between atoms: _152  and  _153
REMARK   62  A    between atoms: _153  and  _154
REMARK   63  A    between atoms: _163  and  _165
REMARK   64  A    between atoms: _165  and  _166
REMARK   65  A    between atoms: _165  and  _168
REMARK   66  A    between atoms: _171  and  _173
REMARK   67  A    between atoms: _173  and  _174
REMARK   68  A    between atoms: _173  and  _176
REMARK   69  A    between atoms: _176  and  _177
REMARK   70  A    between atoms: _182  and  _184
REMARK   71  A    between atoms: _184  and  _185
REMARK   72  A    between atoms: _184  and  _187
REMARK   73  A    between atoms: _187  and  _188
REMARK   74  A    between atoms: _191  and  _193
REMARK   75  A    between atoms: _193  and  _194
REMARK   76  A    between atoms: _196  and  _198
REMARK   77  A    between atoms: _198  and  _199
REMARK   78  A    between atoms: _198  and  _201
REMARK   79  A    between atoms: _201  and  _202
REMARK   80  A    between atoms: _205  and  _207
REMARK   81  A    between atoms: _207  and  _208
REMARK   82  A    between atoms: _211  and  _213
REMARK   83  A    between atoms: _213  and  _214
REMARK   84  A    between atoms: _213  and  _216
REMARK   85  A    between atoms: _216  and  _217
REMARK   86  A    between atoms: _220  and  _222
REMARK   87  A    between atoms: _222  and  _223
REMARK   88  A    between atoms: _222  and  _225
REMARK   89  A    between atoms: _225  and  _226
REMARK   90  A    between atoms: _229  and  _231
REMARK   91  A    between atoms: _231  and  _232
REMARK   92  A    between atoms: _231  and  _234
REMARK   93  A    between atoms: _237  and  _239
REMARK   94  A    between atoms: _239  and  _240
REMARK   95  A    between atoms: _239  and  _242
REMARK   96  A    between atoms: _242  and  _243
REMARK   97  A    between atoms: _246  and  _248
REMARK   98  A    between atoms: _248  and  _249
REMARK   99  A    between atoms: _248  and  _251
REMARK  100  A    between atoms: _251  and  _252
REMARK  101  A    between atoms: _257  and  _258
REMARK  102  A    between atoms: _260  and  _262
REMARK  103  A    between atoms: _262  and  _263
REMARK  104  A    between atoms: _265  and  _267
REMARK  105  A    between atoms: _267  and  _268
REMARK  106  A    between atoms: _271  and  _273
REMARK  107  A    between atoms: _273  and  _274
REMARK  108  A    between atoms: _273  and  _276
REMARK  109  A    between atoms: _276  and  _277
REMARK  110  A    between atoms: _280  and  _282
REMARK  111  A    between atoms: _282  and  _283
REMARK  112  A    between atoms: _282  and  _285
REMARK  113  A    between atoms: _285  and  _286
REMARK  114  A    between atoms: _289  and  _291
REMARK  115  A    between atoms: _291  and  _292
REMARK  116  A    between atoms: _291  and  _294
REMARK  117  A    between atoms: _294  and  _295
REMARK  118  A    between atoms: _295  and  _296
REMARK  119  A    between atoms: _298  and  _300
REMARK  120  A    between atoms: _300  and  _301
REMARK  121  A    between atoms: _300  and  _303
REMARK  122  A    between atoms: _303  and  _304
REMARK  123  A    between atoms: _307  and  _309
REMARK  124  A    between atoms: _309  and  _310
REMARK  125  A    between atoms: _309  and  _312
REMARK  126  A    between atoms: _312  and  _313
REMARK  127  A    between atoms: _316  and  _318
REMARK  128  A    between atoms: _318  and  _319
REMARK  129  A    between atoms: _321  and  _323
REMARK  130  A    between atoms: _323  and  _324
REMARK  131  A    between atoms: _323  and  _326
REMARK  132  A    between atoms: _326  and  _327
REMARK  133  A    between atoms: _330  and  _332
REMARK  134  A    between atoms: _332  and  _333
REMARK  135  A    between atoms: _336  and  _338
REMARK  136  A    between atoms: _338  and  _339
REMARK  137  A    between atoms: _338  and  _341
REMARK  138  A    between atoms: _341  and  _342
REMARK  139  A    between atoms: _342  and  _343
REMARK  140  A    between atoms: _343  and  _344
REMARK  141  A    between atoms: _344  and  _345
REMARK  142  A    between atoms: _349  and  _351
REMARK  143  A    between atoms: _351  and  _352
REMARK  144  A    between atoms: _351  and  _354
REMARK  145  A    between atoms: _354  and  _355
REMARK  146  A    between atoms: _359  and  _360
REMARK  147  A    between atoms: _365  and  _367
REMARK  148  A    between atoms: _367  and  _368
REMARK  149  A    between atoms: _370  and  _372
REMARK  150  A    between atoms: _372  and  _373
REMARK  151  A    between atoms: _372  and  _375
REMARK  152  A    between atoms: _375  and  _376
REMARK  153  A    between atoms: _376  and  _377
REMARK  154  A    between atoms: _377  and  _378
REMARK  155  A    between atoms: _378  and  _379
REMARK  156  A    between atoms: _383  and  _385
REMARK  157  A    between atoms: _385  and  _386
REMARK  158  A    between atoms: _385  and  _388
REMARK  159  A    between atoms: _388  and  _389
REMARK  160  A    between atoms: _392  and  _394
REMARK  161  A    between atoms: _394  and  _395
REMARK  162  A    between atoms: _394  and  _397
REMARK  163  A    between atoms: _397  and  _398
REMARK  164  A    between atoms: _401  and  _403
REMARK  165  A    between atoms: _403  and  _404
REMARK  166  A    between atoms: _403  and  _406
REMARK  167  A    between atoms: _406  and  _407
REMARK  168  A    between atoms: _407  and  _408
REMARK  169  A    between atoms: _411  and  _413
REMARK  170  A    between atoms: _413  and  _414
REMARK  171  A    between atoms: _413  and  _416
REMARK  172  A    between atoms: _416  and  _417
REMARK  173  A    between atoms: _417  and  _418
REMARK  174  A    between atoms: _421  and  _423
REMARK  175  A    between atoms: _423  and  _424
REMARK  176  A    between atoms: _423  and  _426
REMARK  177  A    between atoms: _426  and  _427
REMARK  178  A    between atoms: _432  and  _434
REMARK  179  A    between atoms: _434  and  _435
REMARK  180  A    between atoms: _434  and  _437
REMARK  181  A    between atoms: _437  and  _438
REMARK                            x       y       z     vdW  Elec       q    Type
REMARK                         _______ _______ _______ _____ _____    ______ ____
ROOT
ATOM      1  O   HOH     1       4.104   8.442  18.455  0.00  0.00    +0.000 OA
ENDROOT
TORSDOF 0
REMARK  Name = ../refined-set-2016/3bex/3bex_pocket.pdb
REMARK  181 active torsions:
REMARK  status: ('A' for Active; 'I' for Inactive)
REMARK    1  A    between atoms: _1  and  _3
REMARK    2  A    between atoms: _3  and  _4
REMARK    3  A    between atoms: _3  and  _6
REMARK    4  A    between atoms: _6  and  _7
REMARK    5  A    between atoms: _10  and  _12
REMARK    6  A    between atoms: _12  and  _13
REMARK    7  A    between atoms: _12  and  _15
REMARK    8  A    between atoms: _18  and  _20
REMARK    9  A    between atoms: _20  and  _21
REMARK   10  A    between atoms: _23  and  _25
REMARK   11  A    between atoms: _25  and  _26
REMARK   12  A    between atoms: _25  and  _28
REMARK   13  A    between atoms: _28  and  _29
REMARK   14  A    between atoms: _34  and  _36
REMARK   15  A    between atoms: _36  and  _37
REMARK   16  A    between atoms: _36  and  _39
REMARK   17  A    between atoms: _39  and  _40
REMARK   18  A    between atoms: _43  and  _45
REMARK   19  A    between atoms: _45  and  _46
REMARK   20  A    between atoms: _45  and  _48
REMARK   21  A    between atoms: _48  and  _49
REMARK   22  A    between atoms: _51  and  _53
REMARK   23  A    between atoms: _53  and  _54
REMARK   24  A    between atoms: _53  and  _56
REMARK   25  A    between atoms: _59  and  _61
REMARK   26  A    between atoms: _61  and  _62
REMARK   27  A    between atoms: _61  and  _64
REMARK   28  A    between atoms: _68  and  _69
REMARK   29  A    between atoms: _74  and  _76
REMARK   30  A    between atoms: _76  and  _77
REMARK   31  A    between atoms: _76  and  _79
REMARK   32  A    between atoms: _82  and  _84
REMARK   33  A    between atoms: _84  and  _85
REMARK   34  A    between atoms: _84  and  _87
REMARK   35  A    between atoms: _87  and  _88
REMARK   36  A    between atoms: _94  and  _95
REMARK   37  A    between atoms: _100  and  _102
REMARK   38  A    between atoms: _102  and  _103
REMARK   39  A    between atoms: _102  and  _105
REMARK   40  A    between atoms: _105  and  _106
REMARK   41  A    between atoms: _108  and  _110
REMARK   42  A    between atoms: _110  and  _111
REMARK   43  A    between atoms: _110  and  _113
REMARK   44  A    between atoms: _113  and  _114
REMARK   45  A    between atoms: _114  and  _115
REMARK   46  A    between atoms: _118  and  _120
REMARK   47  A    between atoms: _120  and  _121
REMARK   48  A    between atoms: _120  and  _123
REMARK   49  A    between atoms: _126  and  _128
REMARK   50  A    between atoms: _128  and  _129
REMARK   51  A    between atoms: _131  and  _133
REMARK   52  A    between atoms: _133  and  _134
REMARK   53  A    between atoms: _137  and  _139
REMARK   54  A    between atoms: _139  and  _140
REMARK   55  A    between atoms: _139  and  _142
REMARK   56  A    between atoms: _142  and  _143
REMARK   57  A    between atoms: _146  and  _148
REMARK   58  A    between atoms: _148  and  _149
REMARK   59  A    between atoms: _148  and  _151
REMARK   60  A    between atoms: _151  and  _152
REMARK   61  A    between atoms: _152  and  _153
REMARK   62  A    between atoms: _153  and  _154
REMARK   63  A    between atoms: _163  and  _165
REMARK   64  A    between atoms: _165  and  _166
REMARK   65  A    between atoms: _165  and  _168
REMARK   66  A    between atoms: _171  and  _173
REMARK   67  A    between atoms: _173  and  _174
REMARK   68  A    between atoms: _173  and  _176
REMARK   69  A    between atoms: _176  and  _177
REMARK   70  A    between atoms: _182  and  _184
REMARK   71  A    between atoms: _184  and  _185
REMARK   72  A    between atoms: _184  and  _187
REMARK   73  A    between atoms: _187  and  _188
REMARK   74  A    between atoms: _191  and  _193
REMARK   75  A    between atoms: _193  and  _194
REMARK   76  A    between atoms: _196  and  _198
REMARK   77  A    between atoms: _198  and  _199
REMARK   78  A    between atoms: _198  and  _201
REMARK   79  A    between atoms: _201  and  _202
REMARK   80  A    between atoms: _205  and  _207
REMARK   81  A    between atoms: _207  and  _208
REMARK   82  A    between atoms: _211  and  _213
REMARK   83  A    between atoms: _213  and  _214
REMARK   84  A    between atoms: _213  and  _216
REMARK   85  A    between atoms: _216  and  _217
REMARK   86  A    between atoms: _220  and  _222
REMARK   87  A    between atoms: _222  and  _223
REMARK   88  A    between atoms: _222  and  _225
REMARK   89  A    between atoms: _225  and  _226
REMARK   90  A    between atoms: _229  and  _231
REMARK   91  A    between atoms: _231  and  _232
REMARK   92  A    between atoms: _231  and  _234
REMARK   93  A    between atoms: _237  and  _239
REMARK   94  A    between atoms: _239  and  _240
REMARK   95  A    between atoms: _239  and  _242
REMARK   96  A    between atoms: _242  and  _243
REMARK   97  A    between atoms: _246  and  _248
REMARK   98  A    between atoms: _248  and  _249
REMARK   99  A    between atoms: _248  and  _251
REMARK  100  A    between atoms: _251  and  _252
REMARK  101  A    between atoms: _257  and  _258
REMARK  102  A    between atoms: _260  and  _262
REMARK  103  A    between atoms: _262  and  _263
REMARK  104  A    between atoms: _265  and  _267
REMARK  105  A    between atoms: _267  and  _268
REMARK  106  A    between atoms: _271  and  _273
REMARK  107  A    between atoms: _273  and  _274
REMARK  108  A    between atoms: _273  and  _276
REMARK  109  A    between atoms: _276  and  _277
REMARK  110  A    between atoms: _280  and  _282
REMARK  111  A    between atoms: _282  and  _283
REMARK  112  A    between atoms: _282  and  _285
REMARK  113  A    between atoms: _285  and  _286
REMARK  114  A    between atoms: _289  and  _291
REMARK  115  A    between atoms: _291  and  _292
REMARK  116  A    between atoms: _291  and  _294
REMARK  117  A    between atoms: _294  and  _295
REMARK  118  A    between atoms: _295  and  _296
REMARK  119  A    between atoms: _298  and  _300
REMARK  120  A    between atoms: _300  and  _301
REMARK  121  A    between atoms: _300  and  _303
REMARK  122  A    between atoms: _303  and  _304
REMARK  123  A    between atoms: _307  and  _309
REMARK  124  A    between atoms: _309  and  _310
REMARK  125  A    between atoms: _309  and  _312
REMARK  126  A    between atoms: _312  and  _313
REMARK  127  A    between atoms: _316  and  _318
REMARK  128  A    between atoms: _318  and  _319
REMARK  129  A    between atoms: _321  and  _323
REMARK  130  A    between atoms: _323  and  _324
REMARK  131  A    between atoms: _323  and  _326
REMARK  132  A    between atoms: _326  and  _327
REMARK  133  A    between atoms: _330  and  _332
REMARK  134  A    between atoms: _332  and  _333
REMARK  135  A    between atoms: _336  and  _338
REMARK  136  A    between atoms: _338  and  _339
REMARK  137  A    between atoms: _338  and  _341
REMARK  138  A    between atoms: _341  and  _342
REMARK  139  A    between atoms: _342  and  _343
REMARK  140  A    between atoms: _343  and  _344
REMARK  141  A    between atoms: _344  and  _345
REMARK  142  A    between atoms: _349  and  _351
REMARK  143  A    between atoms: _351  and  _352
REMARK  144  A    between atoms: _351  and  _354
REMARK  145  A    between atoms: _354  and  _355
REMARK  146  A    between atoms: _359  and  _360
REMARK  147  A    between atoms: _365  and  _367
REMARK  148  A    between atoms: _367  and  _368
REMARK  149  A    between atoms: _370  and  _372
REMARK  150  A    between atoms: _372  and  _373
REMARK  151  A    between atoms: _372  and  _375
REMARK  152  A    between atoms: _375  and  _376
REMARK  153  A    between atoms: _376  and  _377
REMARK  154  A    between atoms: _377  and  _378
REMARK  155  A    between atoms: _378  and  _379
REMARK  156  A    between atoms: _383  and  _385
REMARK  157  A    between atoms: _385  and  _386
REMARK  158  A    between atoms: _385  and  _388
REMARK  159  A    between atoms: _388  and  _389
REMARK  160  A    between atoms: _392  and  _394
REMARK  161  A    between atoms: _394  and  _395
REMARK  162  A    between atoms: _394  and  _397
REMARK  163  A    between atoms: _397  and  _398
REMARK  164  A    between atoms: _401  and  _403
REMARK  165  A    between atoms: _403  and  _404
REMARK  166  A    between atoms: _403  and  _406
REMARK  167  A    between atoms: _406  and  _407
REMARK  168  A    between atoms: _407  and  _408
REMARK  169  A    between atoms: _411  and  _413
REMARK  170  A    between atoms: _413  and  _414
REMARK  171  A    between atoms: _413  and  _416
REMARK  172  A    between atoms: _416  and  _417
REMARK  173  A    between atoms: _417  and  _418
REMARK  174  A    between atoms: _421  and  _423
REMARK  175  A    between atoms: _423  and  _424
REMARK  176  A    between atoms: _423  and  _426
REMARK  177  A    between atoms: _426  and  _427
REMARK  178  A    between atoms: _432  and  _434
REMARK  179  A    between atoms: _434  and  _435
REMARK  180  A    between atoms: _434  and  _437
REMARK  181  A    between atoms: _437  and  _438
REMARK                            x       y       z     vdW  Elec       q    Type
REMARK                         _______ _______ _______ _____ _____    ______ ____
ROOT
ATOM      1  O   HOH     1      -2.191   8.755  16.204  0.00  0.00    +0.000 OA
ENDROOT
TORSDOF 0
REMARK  Name = ../refined-set-2016/3bex/3bex_pocket.pdb
REMARK  181 active torsions:
REMARK  status: ('A' for Active; 'I' for Inactive)
REMARK    1  A    between atoms: _1  and  _3
REMARK    2  A    between atoms: _3  and  _4
REMARK    3  A    between atoms: _3  and  _6
REMARK    4  A    between atoms: _6  and  _7
REMARK    5  A    between atoms: _10  and  _12
REMARK    6  A    between atoms: _12  and  _13
REMARK    7  A    between atoms: _12  and  _15
REMARK    8  A    between atoms: _18  and  _20
REMARK    9  A    between atoms: _20  and  _21
REMARK   10  A    between atoms: _23  and  _25
REMARK   11  A    between atoms: _25  and  _26
REMARK   12  A    between atoms: _25  and  _28
REMARK   13  A    between atoms: _28  and  _29
REMARK   14  A    between atoms: _34  and  _36
REMARK   15  A    between atoms: _36  and  _37
REMARK   16  A    between atoms: _36  and  _39
REMARK   17  A    between atoms: _39  and  _40
REMARK   18  A    between atoms: _43  and  _45
REMARK   19  A    between atoms: _45  and  _46
REMARK   20  A    between atoms: _45  and  _48
REMARK   21  A    between atoms: _48  and  _49
REMARK   22  A    between atoms: _51  and  _53
REMARK   23  A    between atoms: _53  and  _54
REMARK   24  A    between atoms: _53  and  _56
REMARK   25  A    between atoms: _59  and  _61
REMARK   26  A    between atoms: _61  and  _62
REMARK   27  A    between atoms: _61  and  _64
REMARK   28  A    between atoms: _68  and  _69
REMARK   29  A    between atoms: _74  and  _76
REMARK   30  A    between atoms: _76  and  _77
REMARK   31  A    between atoms: _76  and  _79
REMARK   32  A    between atoms: _82  and  _84
REMARK   33  A    between atoms: _84  and  _85
REMARK   34  A    between atoms: _84  and  _87
REMARK   35  A    between atoms: _87  and  _88
REMARK   36  A    between atoms: _94  and  _95
REMARK   37  A    between atoms: _100  and  _102
REMARK   38  A    between atoms: _102  and  _103
REMARK   39  A    between atoms: _102  and  _105
REMARK   40  A    between atoms: _105  and  _106
REMARK   41  A    between atoms: _108  and  _110
REMARK   42  A    between atoms: _110  and  _111
REMARK   43  A    between atoms: _110  and  _113
REMARK   44  A    between atoms: _113  and  _114
REMARK   45  A    between atoms: _114  and  _115
REMARK   46  A    between atoms: _118  and  _120
REMARK   47  A    between atoms: _120  and  _121
REMARK   48  A    between atoms: _120  and  _123
REMARK   49  A    between atoms: _126  and  _128
REMARK   50  A    between atoms: _128  and  _129
REMARK   51  A    between atoms: _131  and  _133
REMARK   52  A    between atoms: _133  and  _134
REMARK   53  A    between atoms: _137  and  _139
REMARK   54  A    between atoms: _139  and  _140
REMARK   55  A    between atoms: _139  and  _142
REMARK   56  A    between atoms: _142  and  _143
REMARK   57  A    between atoms: _146  and  _148
REMARK   58  A    between atoms: _148  and  _149
REMARK   59  A    between atoms: _148  and  _151
REMARK   60  A    between atoms: _151  and  _152
REMARK   61  A    between atoms: _152  and  _153
REMARK   62  A    between atoms: _153  and  _154
REMARK   63  A    between atoms: _163  and  _165
REMARK   64  A    between atoms: _165  and  _166
REMARK   65  A    between atoms: _165  and  _168
REMARK   66  A    between atoms: _171  and  _173
REMARK   67  A    between atoms: _173  and  _174
REMARK   68  A    between atoms: _173  and  _176
REMARK   69  A    between atoms: _176  and  _177
REMARK   70  A    between atoms: _182  and  _184
REMARK   71  A    between atoms: _184  and  _185
REMARK   72  A    between atoms: _184  and  _187
REMARK   73  A    between atoms: _187  and  _188
REMARK   74  A    between atoms: _191  and  _193
REMARK   75  A    between atoms: _193  and  _194
REMARK   76  A    between atoms: _196  and  _198
REMARK   77  A    between atoms: _198  and  _199
REMARK   78  A    between atoms: _198  and  _201
REMARK   79  A    between atoms: _201  and  _202
REMARK   80  A    between atoms: _205  and  _207
REMARK   81  A    between atoms: _207  and  _208
REMARK   82  A    between atoms: _211  and  _213
REMARK   83  A    between atoms: _213  and  _214
REMARK   84  A    between atoms: _213  and  _216
REMARK   85  A    between atoms: _216  and  _217
REMARK   86  A    between atoms: _220  and  _222
REMARK   87  A    between atoms: _222  and  _223
REMARK   88  A    between atoms: _222  and  _225
REMARK   89  A    between atoms: _225  and  _226
REMARK   90  A    between atoms: _229  and  _231
REMARK   91  A    between atoms: _231  and  _232
REMARK   92  A    between atoms: _231  and  _234
REMARK   93  A    between atoms: _237  and  _239
REMARK   94  A    between atoms: _239  and  _240
REMARK   95  A    between atoms: _239  and  _242
REMARK   96  A    between atoms: _242  and  _243
REMARK   97  A    between atoms: _246  and  _248
REMARK   98  A    between atoms: _248  and  _249
REMARK   99  A    between atoms: _248  and  _251
REMARK  100  A    between atoms: _251  and  _252
REMARK  101  A    between atoms: _257  and  _258
REMARK  102  A    between atoms: _260  and  _262
REMARK  103  A    between atoms: _262  and  _263
REMARK  104  A    between atoms: _265  and  _267
REMARK  105  A    between atoms: _267  and  _268
REMARK  106  A    between atoms: _271  and  _273
REMARK  107  A    between atoms: _273  and  _274
REMARK  108  A    between atoms: _273  and  _276
REMARK  109  A    between atoms: _276  and  _277
REMARK  110  A    between atoms: _280  and  _282
REMARK  111  A    between atoms: _282  and  _283
REMARK  112  A    between atoms: _282  and  _285
REMARK  113  A    between atoms: _285  and  _286
REMARK  114  A    between atoms: _289  and  _291
REMARK  115  A    between atoms: _291  and  _292
REMARK  116  A    between atoms: _291  and  _294
REMARK  117  A    between atoms: _294  and  _295
REMARK  118  A    between atoms: _295  and  _296
REMARK  119  A    between atoms: _298  and  _300
REMARK  120  A    between atoms: _300  and  _301
REMARK  121  A    between atoms: _300  and  _303
REMARK  122  A    between atoms: _303  and  _304
REMARK  123  A    between atoms: _307  and  _309
REMARK  124  A    between atoms: _309  and  _310
REMARK  125  A    between atoms: _309  and  _312
REMARK  126  A    between atoms: _312  and  _313
REMARK  127  A    between atoms: _316  and  _318
REMARK  128  A    between atoms: _318  and  _319
REMARK  129  A    between atoms: _321  and  _323
REMARK  130  A    between atoms: _323  and  _324
REMARK  131  A    between atoms: _323  and  _326
REMARK  132  A    between atoms: _326  and  _327
REMARK  133  A    between atoms: _330  and  _332
REMARK  134  A    between atoms: _332  and  _333
REMARK  135  A    between atoms: _336  and  _338
REMARK  136  A    between atoms: _338  and  _339
REMARK  137  A    between atoms: _338  and  _341
REMARK  138  A    between atoms: _341  and  _342
REMARK  139  A    between atoms: _342  and  _343
REMARK  140  A    between atoms: _343  and  _344
REMARK  141  A    between atoms: _344  and  _345
REMARK  142  A    between atoms: _349  and  _351
REMARK  143  A    between atoms: _351  and  _352
REMARK  144  A    between atoms: _351  and  _354
REMARK  145  A    between atoms: _354  and  _355
REMARK  146  A    between atoms: _359  and  _360
REMARK  147  A    between atoms: _365  and  _367
REMARK  148  A    between atoms: _367  and  _368
REMARK  149  A    between atoms: _370  and  _372
REMARK  150  A    between atoms: _372  and  _373
REMARK  151  A    between atoms: _372  and  _375
REMARK  152  A    between atoms: _375  and  _376
REMARK  153  A    between atoms: _376  and  _377
REMARK  154  A    between atoms: _377  and  _378
REMARK  155  A    between atoms: _378  and  _379
REMARK  156  A    between atoms: _383  and  _385
REMARK  157  A    between atoms: _385  and  _386
REMARK  158  A    between atoms: _385  and  _388
REMARK  159  A    between atoms: _388  and  _389
REMARK  160  A    between atoms: _392  and  _394
REMARK  161  A    between atoms: _394  and  _395
REMARK  162  A    between atoms: _394  and  _397
REMARK  163  A    between atoms: _397  and  _398
REMARK  164  A    between atoms: _401  and  _403
REMARK  165  A    between atoms: _403  and  _404
REMARK  166  A    between atoms: _403  and  _406
REMARK  167  A    between atoms: _406  and  _407
REMARK  168  A    between atoms: _407  and  _408
REMARK  169  A    between atoms: _411  and  _413
REMARK  170  A    between atoms: _413  and  _414
REMARK  171  A    between atoms: _413  and  _416
REMARK  172  A    between atoms: _416  and  _417
REMARK  173  A    between atoms: _417  and  _418
REMARK  174  A    between atoms: _421  and  _423
REMARK  175  A    between atoms: _423  and  _424
REMARK  176  A    between atoms: _423  and  _426
REMARK  177  A    between atoms: _426  and  _427
REMARK  178  A    between atoms: _432  and  _434
REMARK  179  A    between atoms: _434  and  _435
REMARK  180  A    between atoms: _434  and  _437
REMARK  181  A    between atoms: _437  and  _438
REMARK                            x       y       z     vdW  Elec       q    Type
REMARK                         _______ _______ _______ _____ _____    ______ ____
ROOT
ATOM      1  O   HOH     1       4.449  13.082  21.217  0.00  0.00    +0.000 OA
ENDROOT
TORSDOF 0
REMARK  Name = ../refined-set-2016/3bex/3bex_pocket.pdb
REMARK  181 active torsions:
REMARK  status: ('A' for Active; 'I' for Inactive)
REMARK    1  A    between atoms: _1  and  _3
REMARK    2  A    between atoms: _3  and  _4
REMARK    3  A    between atoms: _3  and  _6
REMARK    4  A    between atoms: _6  and  _7
REMARK    5  A    between atoms: _10  and  _12
REMARK    6  A    between atoms: _12  and  _13
REMARK    7  A    between atoms: _12  and  _15
REMARK    8  A    between atoms: _18  and  _20
REMARK    9  A    between atoms: _20  and  _21
REMARK   10  A    between atoms: _23  and  _25
REMARK   11  A    between atoms: _25  and  _26
REMARK   12  A    between atoms: _25  and  _28
REMARK   13  A    between atoms: _28  and  _29
REMARK   14  A    between atoms: _34  and  _36
REMARK   15  A    between atoms: _36  and  _37
REMARK   16  A    between atoms: _36  and  _39
REMARK   17  A    between atoms: _39  and  _40
REMARK   18  A    between atoms: _43  and  _45
REMARK   19  A    between atoms: _45  and  _46
REMARK   20  A    between atoms: _45  and  _48
REMARK   21  A    between atoms: _48  and  _49
REMARK   22  A    between atoms: _51  and  _53
REMARK   23  A    between atoms: _53  and  _54
REMARK   24  A    between atoms: _53  and  _56
REMARK   25  A    between atoms: _59  and  _61
REMARK   26  A    between atoms: _61  and  _62
REMARK   27  A    between atoms: _61  and  _64
REMARK   28  A    between atoms: _68  and  _69
REMARK   29  A    between atoms: _74  and  _76
REMARK   30  A    between atoms: _76  and  _77
REMARK   31  A    between atoms: _76  and  _79
REMARK   32  A    between atoms: _82  and  _84
REMARK   33  A    between atoms: _84  and  _85
REMARK   34  A    between atoms: _84  and  _87
REMARK   35  A    between atoms: _87  and  _88
REMARK   36  A    between atoms: _94  and  _95
REMARK   37  A    between atoms: _100  and  _102
REMARK   38  A    between atoms: _102  and  _103
REMARK   39  A    between atoms: _102  and  _105
REMARK   40  A    between atoms: _105  and  _106
REMARK   41  A    between atoms: _108  and  _110
REMARK   42  A    between atoms: _110  and  _111
REMARK   43  A    between atoms: _110  and  _113
REMARK   44  A    between atoms: _113  and  _114
REMARK   45  A    between atoms: _114  and  _115
REMARK   46  A    between atoms: _118  and  _120
REMARK   47  A    between atoms: _120  and  _121
REMARK   48  A    between atoms: _120  and  _123
REMARK   49  A    between atoms: _126  and  _128
REMARK   50  A    between atoms: _128  and  _129
REMARK   51  A    between atoms: _131  and  _133
REMARK   52  A    between atoms: _133  and  _134
REMARK   53  A    between atoms: _137  and  _139
REMARK   54  A    between atoms: _139  and  _140
REMARK   55  A    between atoms: _139  and  _142
REMARK   56  A    between atoms: _142  and  _143
REMARK   57  A    between atoms: _146  and  _148
REMARK   58  A    between atoms: _148  and  _149
REMARK   59  A    between atoms: _148  and  _151
REMARK   60  A    between atoms: _151  and  _152
REMARK   61  A    between atoms: _152  and  _153
REMARK   62  A    between atoms: _153  and  _154
REMARK   63  A    between atoms: _163  and  _165
REMARK   64  A    between atoms: _165  and  _166
REMARK   65  A    between atoms: _165  and  _168
REMARK   66  A    between atoms: _171  and  _173
REMARK   67  A    between atoms: _173  and  _174
REMARK   68  A    between atoms: _173  and  _176
REMARK   69  A    between atoms: _176  and  _177
REMARK   70  A    between atoms: _182  and  _184
REMARK   71  A    between atoms: _184  and  _185
REMARK   72  A    between atoms: _184  and  _187
REMARK   73  A    between atoms: _187  and  _188
REMARK   74  A    between atoms: _191  and  _193
REMARK   75  A    between atoms: _193  and  _194
REMARK   76  A    between atoms: _196  and  _198
REMARK   77  A    between atoms: _198  and  _199
REMARK   78  A    between atoms: _198  and  _201
REMARK   79  A    between atoms: _201  and  _202
REMARK   80  A    between atoms: _205  and  _207
REMARK   81  A    between atoms: _207  and  _208
REMARK   82  A    between atoms: _211  and  _213
REMARK   83  A    between atoms: _213  and  _214
REMARK   84  A    between atoms: _213  and  _216
REMARK   85  A    between atoms: _216  and  _217
REMARK   86  A    between atoms: _220  and  _222
REMARK   87  A    between atoms: _222  and  _223
REMARK   88  A    between atoms: _222  and  _225
REMARK   89  A    between atoms: _225  and  _226
REMARK   90  A    between atoms: _229  and  _231
REMARK   91  A    between atoms: _231  and  _232
REMARK   92  A    between atoms: _231  and  _234
REMARK   93  A    between atoms: _237  and  _239
REMARK   94  A    between atoms: _239  and  _240
REMARK   95  A    between atoms: _239  and  _242
REMARK   96  A    between atoms: _242  and  _243
REMARK   97  A    between atoms: _246  and  _248
REMARK   98  A    between atoms: _248  and  _249
REMARK   99  A    between atoms: _248  and  _251
REMARK  100  A    between atoms: _251  and  _252
REMARK  101  A    between atoms: _257  and  _258
REMARK  102  A    between atoms: _260  and  _262
REMARK  103  A    between atoms: _262  and  _263
REMARK  104  A    between atoms: _265  and  _267
REMARK  105  A    between atoms: _267  and  _268
REMARK  106  A    between atoms: _271  and  _273
REMARK  107  A    between atoms: _273  and  _274
REMARK  108  A    between atoms: _273  and  _276
REMARK  109  A    between atoms: _276  and  _277
REMARK  110  A    between atoms: _280  and  _282
REMARK  111  A    between atoms: _282  and  _283
REMARK  112  A    between atoms: _282  and  _285
REMARK  113  A    between atoms: _285  and  _286
REMARK  114  A    between atoms: _289  and  _291
REMARK  115  A    between atoms: _291  and  _292
REMARK  116  A    between atoms: _291  and  _294
REMARK  117  A    between atoms: _294  and  _295
REMARK  118  A    between atoms: _295  and  _296
REMARK  119  A    between atoms: _298  and  _300
REMARK  120  A    between atoms: _300  and  _301
REMARK  121  A    between atoms: _300  and  _303
REMARK  122  A    between atoms: _303  and  _304
REMARK  123  A    between atoms: _307  and  _309
REMARK  124  A    between atoms: _309  and  _310
REMARK  125  A    between atoms: _309  and  _312
REMARK  126  A    between atoms: _312  and  _313
REMARK  127  A    between atoms: _316  and  _318
REMARK  128  A    between atoms: _318  and  _319
REMARK  129  A    between atoms: _321  and  _323
REMARK  130  A    between atoms: _323  and  _324
REMARK  131  A    between atoms: _323  and  _326
REMARK  132  A    between atoms: _326  and  _327
REMARK  133  A    between atoms: _330  and  _332
REMARK  134  A    between atoms: _332  and  _333
REMARK  135  A    between atoms: _336  and  _338
REMARK  136  A    between atoms: _338  and  _339
REMARK  137  A    between atoms: _338  and  _341
REMARK  138  A    between atoms: _341  and  _342
REMARK  139  A    between atoms: _342  and  _343
REMARK  140  A    between atoms: _343  and  _344
REMARK  141  A    between atoms: _344  and  _345
REMARK  142  A    between atoms: _349  and  _351
REMARK  143  A    between atoms: _351  and  _352
REMARK  144  A    between atoms: _351  and  _354
REMARK  145  A    between atoms: _354  and  _355
REMARK  146  A    between atoms: _359  and  _360
REMARK  147  A    between atoms: _365  and  _367
REMARK  148  A    between atoms: _367  and  _368
REMARK  149  A    between atoms: _370  and  _372
REMARK  150  A    between atoms: _372  and  _373
REMARK  151  A    between atoms: _372  and  _375
REMARK  152  A    between atoms: _375  and  _376
REMARK  153  A    between atoms: _376  and  _377
REMARK  154  A    between atoms: _377  and  _378
REMARK  155  A    between atoms: _378  and  _379
REMARK  156  A    between atoms: _383  and  _385
REMARK  157  A    between atoms: _385  and  _386
REMARK  158  A    between atoms: _385  and  _388
REMARK  159  A    between atoms: _388  and  _389
REMARK  160  A    between atoms: _392  and  _394
REMARK  161  A    between atoms: _394  and  _395
REMARK  162  A    between atoms: _394  and  _397
REMARK  163  A    between atoms: _397  and  _398
REMARK  164  A    between atoms: _401  and  _403
REMARK  165  A    between atoms: _403  and  _404
REMARK  166  A    between atoms: _403  and  _406
REMARK  167  A    between atoms: _406  and  _407
REMARK  168  A    between atoms: _407  and  _408
REMARK  169  A    between atoms: _411  and  _413
REMARK  170  A    between atoms: _413  and  _414
REMARK  171  A    between atoms: _413  and  _416
REMARK  172  A    between atoms: _416  and  _417
REMARK  173  A    between atoms: _417  and  _418
REMARK  174  A    between atoms: _421  and  _423
REMARK  175  A    between atoms: _423  and  _424
REMARK  176  A    between atoms: _423  and  _426
REMARK  177  A    between atoms: _426  and  _427
REMARK  178  A    between atoms: _432  and  _434
REMARK  179  A    between atoms: _434  and  _435
REMARK  180  A    between atoms: _434  and  _437
REMARK  181  A    between atoms: _437  and  _438
REMARK                            x       y       z     vdW  Elec       q    Type
REMARK                         _______ _______ _______ _____ _____    ______ ____
ROOT
ATOM      1  O   HOH     1       1.427   5.963  12.178  0.00  0.00    +0.000 OA
ENDROOT
TORSDOF 0
REMARK  Name = ../refined-set-2016/3bex/3bex_pocket.pdb
REMARK  181 active torsions:
REMARK  status: ('A' for Active; 'I' for Inactive)
REMARK    1  A    between atoms: _1  and  _3
REMARK    2  A    between atoms: _3  and  _4
REMARK    3  A    between atoms: _3  and  _6
REMARK    4  A    between atoms: _6  and  _7
REMARK    5  A    between atoms: _10  and  _12
REMARK    6  A    between atoms: _12  and  _13
REMARK    7  A    between atoms: _12  and  _15
REMARK    8  A    between atoms: _18  and  _20
REMARK    9  A    between atoms: _20  and  _21
REMARK   10  A    between atoms: _23  and  _25
REMARK   11  A    between atoms: _25  and  _26
REMARK   12  A    between atoms: _25  and  _28
REMARK   13  A    between atoms: _28  and  _29
REMARK   14  A    between atoms: _34  and  _36
REMARK   15  A    between atoms: _36  and  _37
REMARK   16  A    between atoms: _36  and  _39
REMARK   17  A    between atoms: _39  and  _40
REMARK   18  A    between atoms: _43  and  _45
REMARK   19  A    between atoms: _45  and  _46
REMARK   20  A    between atoms: _45  and  _48
REMARK   21  A    between atoms: _48  and  _49
REMARK   22  A    between atoms: _51  and  _53
REMARK   23  A    between atoms: _53  and  _54
REMARK   24  A    between atoms: _53  and  _56
REMARK   25  A    between atoms: _59  and  _61
REMARK   26  A    between atoms: _61  and  _62
REMARK   27  A    between atoms: _61  and  _64
REMARK   28  A    between atoms: _68  and  _69
REMARK   29  A    between atoms: _74  and  _76
REMARK   30  A    between atoms: _76  and  _77
REMARK   31  A    between atoms: _76  and  _79
REMARK   32  A    between atoms: _82  and  _84
REMARK   33  A    between atoms: _84  and  _85
REMARK   34  A    between atoms: _84  and  _87
REMARK   35  A    between atoms: _87  and  _88
REMARK   36  A    between atoms: _94  and  _95
REMARK   37  A    between atoms: _100  and  _102
REMARK   38  A    between atoms: _102  and  _103
REMARK   39  A    between atoms: _102  and  _105
REMARK   40  A    between atoms: _105  and  _106
REMARK   41  A    between atoms: _108  and  _110
REMARK   42  A    between atoms: _110  and  _111
REMARK   43  A    between atoms: _110  and  _113
REMARK   44  A    between atoms: _113  and  _114
REMARK   45  A    between atoms: _114  and  _115
REMARK   46  A    between atoms: _118  and  _120
REMARK   47  A    between atoms: _120  and  _121
REMARK   48  A    between atoms: _120  and  _123
REMARK   49  A    between atoms: _126  and  _128
REMARK   50  A    between atoms: _128  and  _129
REMARK   51  A    between atoms: _131  and  _133
REMARK   52  A    between atoms: _133  and  _134
REMARK   53  A    between atoms: _137  and  _139
REMARK   54  A    between atoms: _139  and  _140
REMARK   55  A    between atoms: _139  and  _142
REMARK   56  A    between atoms: _142  and  _143
REMARK   57  A    between atoms: _146  and  _148
REMARK   58  A    between atoms: _148  and  _149
REMARK   59  A    between atoms: _148  and  _151
REMARK   60  A    between atoms: _151  and  _152
REMARK   61  A    between atoms: _152  and  _153
REMARK   62  A    between atoms: _153  and  _154
REMARK   63  A    between atoms: _163  and  _165
REMARK   64  A    between atoms: _165  and  _166
REMARK   65  A    between atoms: _165  and  _168
REMARK   66  A    between atoms: _171  and  _173
REMARK   67  A    between atoms: _173  and  _174
REMARK   68  A    between atoms: _173  and  _176
REMARK   69  A    between atoms: _176  and  _177
REMARK   70  A    between atoms: _182  and  _184
REMARK   71  A    between atoms: _184  and  _185
REMARK   72  A    between atoms: _184  and  _187
REMARK   73  A    between atoms: _187  and  _188
REMARK   74  A    between atoms: _191  and  _193
REMARK   75  A    between atoms: _193  and  _194
REMARK   76  A    between atoms: _196  and  _198
REMARK   77  A    between atoms: _198  and  _199
REMARK   78  A    between atoms: _198  and  _201
REMARK   79  A    between atoms: _201  and  _202
REMARK   80  A    between atoms: _205  and  _207
REMARK   81  A    between atoms: _207  and  _208
REMARK   82  A    between atoms: _211  and  _213
REMARK   83  A    between atoms: _213  and  _214
REMARK   84  A    between atoms: _213  and  _216
REMARK   85  A    between atoms: _216  and  _217
REMARK   86  A    between atoms: _220  and  _222
REMARK   87  A    between atoms: _222  and  _223
REMARK   88  A    between atoms: _222  and  _225
REMARK   89  A    between atoms: _225  and  _226
REMARK   90  A    between atoms: _229  and  _231
REMARK   91  A    between atoms: _231  and  _232
REMARK   92  A    between atoms: _231  and  _234
REMARK   93  A    between atoms: _237  and  _239
REMARK   94  A    between atoms: _239  and  _240
REMARK   95  A    between atoms: _239  and  _242
REMARK   96  A    between atoms: _242  and  _243
REMARK   97  A    between atoms: _246  and  _248
REMARK   98  A    between atoms: _248  and  _249
REMARK   99  A    between atoms: _248  and  _251
REMARK  100  A    between atoms: _251  and  _252
REMARK  101  A    between atoms: _257  and  _258
REMARK  102  A    between atoms: _260  and  _262
REMARK  103  A    between atoms: _262  and  _263
REMARK  104  A    between atoms: _265  and  _267
REMARK  105  A    between atoms: _267  and  _268
REMARK  106  A    between atoms: _271  and  _273
REMARK  107  A    between atoms: _273  and  _274
REMARK  108  A    between atoms: _273  and  _276
REMARK  109  A    between atoms: _276  and  _277
REMARK  110  A    between atoms: _280  and  _282
REMARK  111  A    between atoms: _282  and  _283
REMARK  112  A    between atoms: _282  and  _285
REMARK  113  A    between atoms: _285  and  _286
REMARK  114  A    between atoms: _289  and  _291
REMARK  115  A    between atoms: _291  and  _292
REMARK  116  A    between atoms: _291  and  _294
REMARK  117  A    between atoms: _294  and  _295
REMARK  118  A    between atoms: _295  and  _296
REMARK  119  A    between atoms: _298  and  _300
REMARK  120  A    between atoms: _300  and  _301
REMARK  121  A    between atoms: _300  and  _303
REMARK  122  A    between atoms: _303  and  _304
REMARK  123  A    between atoms: _307  and  _309
REMARK  124  A    between atoms: _309  and  _310
REMARK  125  A    between atoms: _309  and  _312
REMARK  126  A    between atoms: _312  and  _313
REMARK  127  A    between atoms: _316  and  _318
REMARK  128  A    between atoms: _318  and  _319
REMARK  129  A    between atoms: _321  and  _323
REMARK  130  A    between atoms: _323  and  _324
REMARK  131  A    between atoms: _323  and  _326
REMARK  132  A    between atoms: _326  and  _327
REMARK  133  A    between atoms: _330  and  _332
REMARK  134  A    between atoms: _332  and  _333
REMARK  135  A    between atoms: _336  and  _338
REMARK  136  A    between atoms: _338  and  _339
REMARK  137  A    between atoms: _338  and  _341
REMARK  138  A    between atoms: _341  and  _342
REMARK  139  A    between atoms: _342  and  _343
REMARK  140  A    between atoms: _343  and  _344
REMARK  141  A    between atoms: _344  and  _345
REMARK  142  A    between atoms: _349  and  _351
REMARK  143  A    between atoms: _351  and  _352
REMARK  144  A    between atoms: _351  and  _354
REMARK  145  A    between atoms: _354  and  _355
REMARK  146  A    between atoms: _359  and  _360
REMARK  147  A    between atoms: _365  and  _367
REMARK  148  A    between atoms: _367  and  _368
REMARK  149  A    between atoms: _370  and  _372
REMARK  150  A    between atoms: _372  and  _373
REMARK  151  A    between atoms: _372  and  _375
REMARK  152  A    between atoms: _375  and  _376
REMARK  153  A    between atoms: _376  and  _377
REMARK  154  A    between atoms: _377  and  _378
REMARK  155  A    between atoms: _378  and  _379
REMARK  156  A    between atoms: _383  and  _385
REMARK  157  A    between atoms: _385  and  _386
REMARK  158  A    between atoms: _385  and  _388
REMARK  159  A    between atoms: _388  and  _389
REMARK  160  A    between atoms: _392  and  _394
REMARK  161  A    between atoms: _394  and  _395
REMARK  162  A    between atoms: _394  and  _397
REMARK  163  A    between atoms: _397  and  _398
REMARK  164  A    between atoms: _401  and  _403
REMARK  165  A    between atoms: _403  and  _404
REMARK  166  A    between atoms: _403  and  _406
REMARK  167  A    between atoms: _406  and  _407
REMARK  168  A    between atoms: _407  and  _408
REMARK  169  A    between atoms: _411  and  _413
REMARK  170  A    between atoms: _413  and  _414
REMARK  171  A    between atoms: _413  and  _416
REMARK  172  A    between atoms: _416  and  _417
REMARK  173  A    between atoms: _417  and  _418
REMARK  174  A    between atoms: _421  and  _423
REMARK  175  A    between atoms: _423  and  _424
REMARK  176  A    between atoms: _423  and  _426
REMARK  177  A    between atoms: _426  and  _427
REMARK  178  A    between atoms: _432  and  _434
REMARK  179  A    between atoms: _434  and  _435
REMARK  180  A    between atoms: _434  and  _437
REMARK  181  A    between atoms: _437  and  _438
REMARK                            x       y       z     vdW  Elec       q    Type
REMARK                         _______ _______ _______ _____ _____    ______ ____
ROOT
ATOM      1  O   HOH     1       0.499  16.342  24.806  0.00  0.00    +0.000 OA
ENDROOT
TORSDOF 0
REMARK  Name = ../refined-set-2016/3bex/3bex_pocket.pdb
REMARK  181 active torsions:
REMARK  status: ('A' for Active; 'I' for Inactive)
REMARK    1  A    between atoms: _1  and  _3
REMARK    2  A    between atoms: _3  and  _4
REMARK    3  A    between atoms: _3  and  _6
REMARK    4  A    between atoms: _6  and  _7
REMARK    5  A    between atoms: _10  and  _12
REMARK    6  A    between atoms: _12  and  _13
REMARK    7  A    between atoms: _12  and  _15
REMARK    8  A    between atoms: _18  and  _20
REMARK    9  A    between atoms: _20  and  _21
REMARK   10  A    between atoms: _23  and  _25
REMARK   11  A    between atoms: _25  and  _26
REMARK   12  A    between atoms: _25  and  _28
REMARK   13  A    between atoms: _28  and  _29
REMARK   14  A    between atoms: _34  and  _36
REMARK   15  A    between atoms: _36  and  _37
REMARK   16  A    between atoms: _36  and  _39
REMARK   17  A    between atoms: _39  and  _40
REMARK   18  A    between atoms: _43  and  _45
REMARK   19  A    between atoms: _45  and  _46
REMARK   20  A    between atoms: _45  and  _48
REMARK   21  A    between atoms: _48  and  _49
REMARK   22  A    between atoms: _51  and  _53
REMARK   23  A    between atoms: _53  and  _54
REMARK   24  A    between atoms: _53  and  _56
REMARK   25  A    between atoms: _59  and  _61
REMARK   26  A    between atoms: _61  and  _62
REMARK   27  A    between atoms: _61  and  _64
REMARK   28  A    between atoms: _68  and  _69
REMARK   29  A    between atoms: _74  and  _76
REMARK   30  A    between atoms: _76  and  _77
REMARK   31  A    between atoms: _76  and  _79
REMARK   32  A    between atoms: _82  and  _84
REMARK   33  A    between atoms: _84  and  _85
REMARK   34  A    between atoms: _84  and  _87
REMARK   35  A    between atoms: _87  and  _88
REMARK   36  A    between atoms: _94  and  _95
REMARK   37  A    between atoms: _100  and  _102
REMARK   38  A    between atoms: _102  and  _103
REMARK   39  A    between atoms: _102  and  _105
REMARK   40  A    between atoms: _105  and  _106
REMARK   41  A    between atoms: _108  and  _110
REMARK   42  A    between atoms: _110  and  _111
REMARK   43  A    between atoms: _110  and  _113
REMARK   44  A    between atoms: _113  and  _114
REMARK   45  A    between atoms: _114  and  _115
REMARK   46  A    between atoms: _118  and  _120
REMARK   47  A    between atoms: _120  and  _121
REMARK   48  A    between atoms: _120  and  _123
REMARK   49  A    between atoms: _126  and  _128
REMARK   50  A    between atoms: _128  and  _129
REMARK   51  A    between atoms: _131  and  _133
REMARK   52  A    between atoms: _133  and  _134
REMARK   53  A    between atoms: _137  and  _139
REMARK   54  A    between atoms: _139  and  _140
REMARK   55  A    between atoms: _139  and  _142
REMARK   56  A    between atoms: _142  and  _143
REMARK   57  A    between atoms: _146  and  _148
REMARK   58  A    between atoms: _148  and  _149
REMARK   59  A    between atoms: _148  and  _151
REMARK   60  A    between atoms: _151  and  _152
REMARK   61  A    between atoms: _152  and  _153
REMARK   62  A    between atoms: _153  and  _154
REMARK   63  A    between atoms: _163  and  _165
REMARK   64  A    between atoms: _165  and  _166
REMARK   65  A    between atoms: _165  and  _168
REMARK   66  A    between atoms: _171  and  _173
REMARK   67  A    between atoms: _173  and  _174
REMARK   68  A    between atoms: _173  and  _176
REMARK   69  A    between atoms: _176  and  _177
REMARK   70  A    between atoms: _182  and  _184
REMARK   71  A    between atoms: _184  and  _185
REMARK   72  A    between atoms: _184  and  _187
REMARK   73  A    between atoms: _187  and  _188
REMARK   74  A    between atoms: _191  and  _193
REMARK   75  A    between atoms: _193  and  _194
REMARK   76  A    between atoms: _196  and  _198
REMARK   77  A    between atoms: _198  and  _199
REMARK   78  A    between atoms: _198  and  _201
REMARK   79  A    between atoms: _201  and  _202
REMARK   80  A    between atoms: _205  and  _207
REMARK   81  A    between atoms: _207  and  _208
REMARK   82  A    between atoms: _211  and  _213
REMARK   83  A    between atoms: _213  and  _214
REMARK   84  A    between atoms: _213  and  _216
REMARK   85  A    between atoms: _216  and  _217
REMARK   86  A    between atoms: _220  and  _222
REMARK   87  A    between atoms: _222  and  _223
REMARK   88  A    between atoms: _222  and  _225
REMARK   89  A    between atoms: _225  and  _226
REMARK   90  A    between atoms: _229  and  _231
REMARK   91  A    between atoms: _231  and  _232
REMARK   92  A    between atoms: _231  and  _234
REMARK   93  A    between atoms: _237  and  _239
REMARK   94  A    between atoms: _239  and  _240
REMARK   95  A    between atoms: _239  and  _242
REMARK   96  A    between atoms: _242  and  _243
REMARK   97  A    between atoms: _246  and  _248
REMARK   98  A    between atoms: _248  and  _249
REMARK   99  A    between atoms: _248  and  _251
REMARK  100  A    between atoms: _251  and  _252
REMARK  101  A    between atoms: _257  and  _258
REMARK  102  A    between atoms: _260  and  _262
REMARK  103  A    between atoms: _262  and  _263
REMARK  104  A    between atoms: _265  and  _267
REMARK  105  A    between atoms: _267  and  _268
REMARK  106  A    between atoms: _271  and  _273
REMARK  107  A    between atoms: _273  and  _274
REMARK  108  A    between atoms: _273  and  _276
REMARK  109  A    between atoms: _276  and  _277
REMARK  110  A    between atoms: _280  and  _282
REMARK  111  A    between atoms: _282  and  _283
REMARK  112  A    between atoms: _282  and  _285
REMARK  113  A    between atoms: _285  and  _286
REMARK  114  A    between atoms: _289  and  _291
REMARK  115  A    between atoms: _291  and  _292
REMARK  116  A    between atoms: _291  and  _294
REMARK  117  A    between atoms: _294  and  _295
REMARK  118  A    between atoms: _295  and  _296
REMARK  119  A    between atoms: _298  and  _300
REMARK  120  A    between atoms: _300  and  _301
REMARK  121  A    between atoms: _300  and  _303
REMARK  122  A    between atoms: _303  and  _304
REMARK  123  A    between atoms: _307  and  _309
REMARK  124  A    between atoms: _309  and  _310
REMARK  125  A    between atoms: _309  and  _312
REMARK  126  A    between atoms: _312  and  _313
REMARK  127  A    between atoms: _316  and  _318
REMARK  128  A    between atoms: _318  and  _319
REMARK  129  A    between atoms: _321  and  _323
REMARK  130  A    between atoms: _323  and  _324
REMARK  131  A    between atoms: _323  and  _326
REMARK  132  A    between atoms: _326  and  _327
REMARK  133  A    between atoms: _330  and  _332
REMARK  134  A    between atoms: _332  and  _333
REMARK  135  A    between atoms: _336  and  _338
REMARK  136  A    between atoms: _338  and  _339
REMARK  137  A    between atoms: _338  and  _341
REMARK  138  A    between atoms: _341  and  _342
REMARK  139  A    between atoms: _342  and  _343
REMARK  140  A    between atoms: _343  and  _344
REMARK  141  A    between atoms: _344  and  _345
REMARK  142  A    between atoms: _349  and  _351
REMARK  143  A    between atoms: _351  and  _352
REMARK  144  A    between atoms: _351  and  _354
REMARK  145  A    between atoms: _354  and  _355
REMARK  146  A    between atoms: _359  and  _360
REMARK  147  A    between atoms: _365  and  _367
REMARK  148  A    between atoms: _367  and  _368
REMARK  149  A    between atoms: _370  and  _372
REMARK  150  A    between atoms: _372  and  _373
REMARK  151  A    between atoms: _372  and  _375
REMARK  152  A    between atoms: _375  and  _376
REMARK  153  A    between atoms: _376  and  _377
REMARK  154  A    between atoms: _377  and  _378
REMARK  155  A    between atoms: _378  and  _379
REMARK  156  A    between atoms: _383  and  _385
REMARK  157  A    between atoms: _385  and  _386
REMARK  158  A    between atoms: _385  and  _388
REMARK  159  A    between atoms: _388  and  _389
REMARK  160  A    between atoms: _392  and  _394
REMARK  161  A    between atoms: _394  and  _395
REMARK  162  A    between atoms: _394  and  _397
REMARK  163  A    between atoms: _397  and  _398
REMARK  164  A    between atoms: _401  and  _403
REMARK  165  A    between atoms: _403  and  _404
REMARK  166  A    between atoms: _403  and  _406
REMARK  167  A    between atoms: _406  and  _407
REMARK  168  A    between atoms: _407  and  _408
REMARK  169  A    between atoms: _411  and  _413
REMARK  170  A    between atoms: _413  and  _414
REMARK  171  A    between atoms: _413  and  _416
REMARK  172  A    between atoms: _416  and  _417
REMARK  173  A    between atoms: _417  and  _418
REMARK  174  A    between atoms: _421  and  _423
REMARK  175  A    between atoms: _423  and  _424
REMARK  176  A    between atoms: _423  and  _426
REMARK  177  A    between atoms: _426  and  _427
REMARK  178  A    between atoms: _432  and  _434
REMARK  179  A    between atoms: _434  and  _435
REMARK  180  A    between atoms: _434  and  _437
REMARK  181  A    between atoms: _437  and  _438
REMARK                            x       y       z     vdW  Elec       q    Type
REMARK                         _______ _______ _______ _____ _____    ______ ____
ROOT
ATOM      1  O   HOH     1      -1.930  12.927  20.552  0.00  0.00    +0.000 OA
ENDROOT
TORSDOF 0
REMARK  Name = ../refined-set-2016/3bex/3bex_pocket.pdb
REMARK  181 active torsions:
REMARK  status: ('A' for Active; 'I' for Inactive)
REMARK    1  A    between atoms: _1  and  _3
REMARK    2  A    between atoms: _3  and  _4
REMARK    3  A    between atoms: _3  and  _6
REMARK    4  A    between atoms: _6  and  _7
REMARK    5  A    between atoms: _10  and  _12
REMARK    6  A    between atoms: _12  and  _13
REMARK    7  A    between atoms: _12  and  _15
REMARK    8  A    between atoms: _18  and  _20
REMARK    9  A    between atoms: _20  and  _21
REMARK   10  A    between atoms: _23  and  _25
REMARK   11  A    between atoms: _25  and  _26
REMARK   12  A    between atoms: _25  and  _28
REMARK   13  A    between atoms: _28  and  _29
REMARK   14  A    between atoms: _34  and  _36
REMARK   15  A    between atoms: _36  and  _37
REMARK   16  A    between atoms: _36  and  _39
REMARK   17  A    between atoms: _39  and  _40
REMARK   18  A    between atoms: _43  and  _45
REMARK   19  A    between atoms: _45  and  _46
REMARK   20  A    between atoms: _45  and  _48
REMARK   21  A    between atoms: _48  and  _49
REMARK   22  A    between atoms: _51  and  _53
REMARK   23  A    between atoms: _53  and  _54
REMARK   24  A    between atoms: _53  and  _56
REMARK   25  A    between atoms: _59  and  _61
REMARK   26  A    between atoms: _61  and  _62
REMARK   27  A    between atoms: _61  and  _64
REMARK   28  A    between atoms: _68  and  _69
REMARK   29  A    between atoms: _74  and  _76
REMARK   30  A    between atoms: _76  and  _77
REMARK   31  A    between atoms: _76  and  _79
REMARK   32  A    between atoms: _82  and  _84
REMARK   33  A    between atoms: _84  and  _85
REMARK   34  A    between atoms: _84  and  _87
REMARK   35  A    between atoms: _87  and  _88
REMARK   36  A    between atoms: _94  and  _95
REMARK   37  A    between atoms: _100  and  _102
REMARK   38  A    between atoms: _102  and  _103
REMARK   39  A    between atoms: _102  and  _105
REMARK   40  A    between atoms: _105  and  _106
REMARK   41  A    between atoms: _108  and  _110
REMARK   42  A    between atoms: _110  and  _111
REMARK   43  A    between atoms: _110  and  _113
REMARK   44  A    between atoms: _113  and  _114
REMARK   45  A    between atoms: _114  and  _115
REMARK   46  A    between atoms: _118  and  _120
REMARK   47  A    between atoms: _120  and  _121
REMARK   48  A    between atoms: _120  and  _123
REMARK   49  A    between atoms: _126  and  _128
REMARK   50  A    between atoms: _128  and  _129
REMARK   51  A    between atoms: _131  and  _133
REMARK   52  A    between atoms: _133  and  _134
REMARK   53  A    between atoms: _137  and  _139
REMARK   54  A    between atoms: _139  and  _140
REMARK   55  A    between atoms: _139  and  _142
REMARK   56  A    between atoms: _142  and  _143
REMARK   57  A    between atoms: _146  and  _148
REMARK   58  A    between atoms: _148  and  _149
REMARK   59  A    between atoms: _148  and  _151
REMARK   60  A    between atoms: _151  and  _152
REMARK   61  A    between atoms: _152  and  _153
REMARK   62  A    between atoms: _153  and  _154
REMARK   63  A    between atoms: _163  and  _165
REMARK   64  A    between atoms: _165  and  _166
REMARK   65  A    between atoms: _165  and  _168
REMARK   66  A    between atoms: _171  and  _173
REMARK   67  A    between atoms: _173  and  _174
REMARK   68  A    between atoms: _173  and  _176
REMARK   69  A    between atoms: _176  and  _177
REMARK   70  A    between atoms: _182  and  _184
REMARK   71  A    between atoms: _184  and  _185
REMARK   72  A    between atoms: _184  and  _187
REMARK   73  A    between atoms: _187  and  _188
REMARK   74  A    between atoms: _191  and  _193
REMARK   75  A    between atoms: _193  and  _194
REMARK   76  A    between atoms: _196  and  _198
REMARK   77  A    between atoms: _198  and  _199
REMARK   78  A    between atoms: _198  and  _201
REMARK   79  A    between atoms: _201  and  _202
REMARK   80  A    between atoms: _205  and  _207
REMARK   81  A    between atoms: _207  and  _208
REMARK   82  A    between atoms: _211  and  _213
REMARK   83  A    between atoms: _213  and  _214
REMARK   84  A    between atoms: _213  and  _216
REMARK   85  A    between atoms: _216  and  _217
REMARK   86  A    between atoms: _220  and  _222
REMARK   87  A    between atoms: _222  and  _223
REMARK   88  A    between atoms: _222  and  _225
REMARK   89  A    between atoms: _225  and  _226
REMARK   90  A    between atoms: _229  and  _231
REMARK   91  A    between atoms: _231  and  _232
REMARK   92  A    between atoms: _231  and  _234
REMARK   93  A    between atoms: _237  and  _239
REMARK   94  A    between atoms: _239  and  _240
REMARK   95  A    between atoms: _239  and  _242
REMARK   96  A    between atoms: _242  and  _243
REMARK   97  A    between atoms: _246  and  _248
REMARK   98  A    between atoms: _248  and  _249
REMARK   99  A    between atoms: _248  and  _251
REMARK  100  A    between atoms: _251  and  _252
REMARK  101  A    between atoms: _257  and  _258
REMARK  102  A    between atoms: _260  and  _262
REMARK  103  A    between atoms: _262  and  _263
REMARK  104  A    between atoms: _265  and  _267
REMARK  105  A    between atoms: _267  and  _268
REMARK  106  A    between atoms: _271  and  _273
REMARK  107  A    between atoms: _273  and  _274
REMARK  108  A    between atoms: _273  and  _276
REMARK  109  A    between atoms: _276  and  _277
REMARK  110  A    between atoms: _280  and  _282
REMARK  111  A    between atoms: _282  and  _283
REMARK  112  A    between atoms: _282  and  _285
REMARK  113  A    between atoms: _285  and  _286
REMARK  114  A    between atoms: _289  and  _291
REMARK  115  A    between atoms: _291  and  _292
REMARK  116  A    between atoms: _291  and  _294
REMARK  117  A    between atoms: _294  and  _295
REMARK  118  A    between atoms: _295  and  _296
REMARK  119  A    between atoms: _298  and  _300
REMARK  120  A    between atoms: _300  and  _301
REMARK  121  A    between atoms: _300  and  _303
REMARK  122  A    between atoms: _303  and  _304
REMARK  123  A    between atoms: _307  and  _309
REMARK  124  A    between atoms: _309  and  _310
REMARK  125  A    between atoms: _309  and  _312
REMARK  126  A    between atoms: _312  and  _313
REMARK  127  A    between atoms: _316  and  _318
REMARK  128  A    between atoms: _318  and  _319
REMARK  129  A    between atoms: _321  and  _323
REMARK  130  A    between atoms: _323  and  _324
REMARK  131  A    between atoms: _323  and  _326
REMARK  132  A    between atoms: _326  and  _327
REMARK  133  A    between atoms: _330  and  _332
REMARK  134  A    between atoms: _332  and  _333
REMARK  135  A    between atoms: _336  and  _338
REMARK  136  A    between atoms: _338  and  _339
REMARK  137  A    between atoms: _338  and  _341
REMARK  138  A    between atoms: _341  and  _342
REMARK  139  A    between atoms: _342  and  _343
REMARK  140  A    between atoms: _343  and  _344
REMARK  141  A    between atoms: _344  and  _345
REMARK  142  A    between atoms: _349  and  _351
REMARK  143  A    between atoms: _351  and  _352
REMARK  144  A    between atoms: _351  and  _354
REMARK  145  A    between atoms: _354  and  _355
REMARK  146  A    between atoms: _359  and  _360
REMARK  147  A    between atoms: _365  and  _367
REMARK  148  A    between atoms: _367  and  _368
REMARK  149  A    between atoms: _370  and  _372
REMARK  150  A    between atoms: _372  and  _373
REMARK  151  A    between atoms: _372  and  _375
REMARK  152  A    between atoms: _375  and  _376
REMARK  153  A    between atoms: _376  and  _377
REMARK  154  A    between atoms: _377  and  _378
REMARK  155  A    between atoms: _378  and  _379
REMARK  156  A    between atoms: _383  and  _385
REMARK  157  A    between atoms: _385  and  _386
REMARK  158  A    between atoms: _385  and  _388
REMARK  159  A    between atoms: _388  and  _389
REMARK  160  A    between atoms: _392  and  _394
REMARK  161  A    between atoms: _394  and  _395
REMARK  162  A    between atoms: _394  and  _397
REMARK  163  A    between atoms: _397  and  _398
REMARK  164  A    between atoms: _401  and  _403
REMARK  165  A    between atoms: _403  and  _404
REMARK  166  A    between atoms: _403  and  _406
REMARK  167  A    between atoms: _406  and  _407
REMARK  168  A    between atoms: _407  and  _408
REMARK  169  A    between atoms: _411  and  _413
REMARK  170  A    between atoms: _413  and  _414
REMARK  171  A    between atoms: _413  and  _416
REMARK  172  A    between atoms: _416  and  _417
REMARK  173  A    between atoms: _417  and  _418
REMARK  174  A    between atoms: _421  and  _423
REMARK  175  A    between atoms: _423  and  _424
REMARK  176  A    between atoms: _423  and  _426
REMARK  177  A    between atoms: _426  and  _427
REMARK  178  A    between atoms: _432  and  _434
REMARK  179  A    between atoms: _434  and  _435
REMARK  180  A    between atoms: _434  and  _437
REMARK  181  A    between atoms: _437  and  _438
REMARK                            x       y       z     vdW  Elec       q    Type
REMARK                         _______ _______ _______ _____ _____    ______ ____
ROOT
ATOM      1  O   HOH     1       2.566  13.878   6.700  0.00  0.00    +0.000 OA
ENDROOT
TORSDOF 0
REMARK  Name = ../refined-set-2016/3bex/3bex_pocket.pdb
REMARK  181 active torsions:
REMARK  status: ('A' for Active; 'I' for Inactive)
REMARK    1  A    between atoms: _1  and  _3
REMARK    2  A    between atoms: _3  and  _4
REMARK    3  A    between atoms: _3  and  _6
REMARK    4  A    between atoms: _6  and  _7
REMARK    5  A    between atoms: _10  and  _12
REMARK    6  A    between atoms: _12  and  _13
REMARK    7  A    between atoms: _12  and  _15
REMARK    8  A    between atoms: _18  and  _20
REMARK    9  A    between atoms: _20  and  _21
REMARK   10  A    between atoms: _23  and  _25
REMARK   11  A    between atoms: _25  and  _26
REMARK   12  A    between atoms: _25  and  _28
REMARK   13  A    between atoms: _28  and  _29
REMARK   14  A    between atoms: _34  and  _36
REMARK   15  A    between atoms: _36  and  _37
REMARK   16  A    between atoms: _36  and  _39
REMARK   17  A    between atoms: _39  and  _40
REMARK   18  A    between atoms: _43  and  _45
REMARK   19  A    between atoms: _45  and  _46
REMARK   20  A    between atoms: _45  and  _48
REMARK   21  A    between atoms: _48  and  _49
REMARK   22  A    between atoms: _51  and  _53
REMARK   23  A    between atoms: _53  and  _54
REMARK   24  A    between atoms: _53  and  _56
REMARK   25  A    between atoms: _59  and  _61
REMARK   26  A    between atoms: _61  and  _62
REMARK   27  A    between atoms: _61  and  _64
REMARK   28  A    between atoms: _68  and  _69
REMARK   29  A    between atoms: _74  and  _76
REMARK   30  A    between atoms: _76  and  _77
REMARK   31  A    between atoms: _76  and  _79
REMARK   32  A    between atoms: _82  and  _84
REMARK   33  A    between atoms: _84  and  _85
REMARK   34  A    between atoms: _84  and  _87
REMARK   35  A    between atoms: _87  and  _88
REMARK   36  A    between atoms: _94  and  _95
REMARK   37  A    between atoms: _100  and  _102
REMARK   38  A    between atoms: _102  and  _103
REMARK   39  A    between atoms: _102  and  _105
REMARK   40  A    between atoms: _105  and  _106
REMARK   41  A    between atoms: _108  and  _110
REMARK   42  A    between atoms: _110  and  _111
REMARK   43  A    between atoms: _110  and  _113
REMARK   44  A    between atoms: _113  and  _114
REMARK   45  A    between atoms: _114  and  _115
REMARK   46  A    between atoms: _118  and  _120
REMARK   47  A    between atoms: _120  and  _121
REMARK   48  A    between atoms: _120  and  _123
REMARK   49  A    between atoms: _126  and  _128
REMARK   50  A    between atoms: _128  and  _129
REMARK   51  A    between atoms: _131  and  _133
REMARK   52  A    between atoms: _133  and  _134
REMARK   53  A    between atoms: _137  and  _139
REMARK   54  A    between atoms: _139  and  _140
REMARK   55  A    between atoms: _139  and  _142
REMARK   56  A    between atoms: _142  and  _143
REMARK   57  A    between atoms: _146  and  _148
REMARK   58  A    between atoms: _148  and  _149
REMARK   59  A    between atoms: _148  and  _151
REMARK   60  A    between atoms: _151  and  _152
REMARK   61  A    between atoms: _152  and  _153
REMARK   62  A    between atoms: _153  and  _154
REMARK   63  A    between atoms: _163  and  _165
REMARK   64  A    between atoms: _165  and  _166
REMARK   65  A    between atoms: _165  and  _168
REMARK   66  A    between atoms: _171  and  _173
REMARK   67  A    between atoms: _173  and  _174
REMARK   68  A    between atoms: _173  and  _176
REMARK   69  A    between atoms: _176  and  _177
REMARK   70  A    between atoms: _182  and  _184
REMARK   71  A    between atoms: _184  and  _185
REMARK   72  A    between atoms: _184  and  _187
REMARK   73  A    between atoms: _187  and  _188
REMARK   74  A    between atoms: _191  and  _193
REMARK   75  A    between atoms: _193  and  _194
REMARK   76  A    between atoms: _196  and  _198
REMARK   77  A    between atoms: _198  and  _199
REMARK   78  A    between atoms: _198  and  _201
REMARK   79  A    between atoms: _201  and  _202
REMARK   80  A    between atoms: _205  and  _207
REMARK   81  A    between atoms: _207  and  _208
REMARK   82  A    between atoms: _211  and  _213
REMARK   83  A    between atoms: _213  and  _214
REMARK   84  A    between atoms: _213  and  _216
REMARK   85  A    between atoms: _216  and  _217
REMARK   86  A    between atoms: _220  and  _222
REMARK   87  A    between atoms: _222  and  _223
REMARK   88  A    between atoms: _222  and  _225
REMARK   89  A    between atoms: _225  and  _226
REMARK   90  A    between atoms: _229  and  _231
REMARK   91  A    between atoms: _231  and  _232
REMARK   92  A    between atoms: _231  and  _234
REMARK   93  A    between atoms: _237  and  _239
REMARK   94  A    between atoms: _239  and  _240
REMARK   95  A    between atoms: _239  and  _242
REMARK   96  A    between atoms: _242  and  _243
REMARK   97  A    between atoms: _246  and  _248
REMARK   98  A    between atoms: _248  and  _249
REMARK   99  A    between atoms: _248  and  _251
REMARK  100  A    between atoms: _251  and  _252
REMARK  101  A    between atoms: _257  and  _258
REMARK  102  A    between atoms: _260  and  _262
REMARK  103  A    between atoms: _262  and  _263
REMARK  104  A    between atoms: _265  and  _267
REMARK  105  A    between atoms: _267  and  _268
REMARK  106  A    between atoms: _271  and  _273
REMARK  107  A    between atoms: _273  and  _274
REMARK  108  A    between atoms: _273  and  _276
REMARK  109  A    between atoms: _276  and  _277
REMARK  110  A    between atoms: _280  and  _282
REMARK  111  A    between atoms: _282  and  _283
REMARK  112  A    between atoms: _282  and  _285
REMARK  113  A    between atoms: _285  and  _286
REMARK  114  A    between atoms: _289  and  _291
REMARK  115  A    between atoms: _291  and  _292
REMARK  116  A    between atoms: _291  and  _294
REMARK  117  A    between atoms: _294  and  _295
REMARK  118  A    between atoms: _295  and  _296
REMARK  119  A    between atoms: _298  and  _300
REMARK  120  A    between atoms: _300  and  _301
REMARK  121  A    between atoms: _300  and  _303
REMARK  122  A    between atoms: _303  and  _304
REMARK  123  A    between atoms: _307  and  _309
REMARK  124  A    between atoms: _309  and  _310
REMARK  125  A    between atoms: _309  and  _312
REMARK  126  A    between atoms: _312  and  _313
REMARK  127  A    between atoms: _316  and  _318
REMARK  128  A    between atoms: _318  and  _319
REMARK  129  A    between atoms: _321  and  _323
REMARK  130  A    between atoms: _323  and  _324
REMARK  131  A    between atoms: _323  and  _326
REMARK  132  A    between atoms: _326  and  _327
REMARK  133  A    between atoms: _330  and  _332
REMARK  134  A    between atoms: _332  and  _333
REMARK  135  A    between atoms: _336  and  _338
REMARK  136  A    between atoms: _338  and  _339
REMARK  137  A    between atoms: _338  and  _341
REMARK  138  A    between atoms: _341  and  _342
REMARK  139  A    between atoms: _342  and  _343
REMARK  140  A    between atoms: _343  and  _344
REMARK  141  A    between atoms: _344  and  _345
REMARK  142  A    between atoms: _349  and  _351
REMARK  143  A    between atoms: _351  and  _352
REMARK  144  A    between atoms: _351  and  _354
REMARK  145  A    between atoms: _354  and  _355
REMARK  146  A    between atoms: _359  and  _360
REMARK  147  A    between atoms: _365  and  _367
REMARK  148  A    between atoms: _367  and  _368
REMARK  149  A    between atoms: _370  and  _372
REMARK  150  A    between atoms: _372  and  _373
REMARK  151  A    between atoms: _372  and  _375
REMARK  152  A    between atoms: _375  and  _376
REMARK  153  A    between atoms: _376  and  _377
REMARK  154  A    between atoms: _377  and  _378
REMARK  155  A    between atoms: _378  and  _379
REMARK  156  A    between atoms: _383  and  _385
REMARK  157  A    between atoms: _385  and  _386
REMARK  158  A    between atoms: _385  and  _388
REMARK  159  A    between atoms: _388  and  _389
REMARK  160  A    between atoms: _392  and  _394
REMARK  161  A    between atoms: _394  and  _395
REMARK  162  A    between atoms: _394  and  _397
REMARK  163  A    between atoms: _397  and  _398
REMARK  164  A    between atoms: _401  and  _403
REMARK  165  A    between atoms: _403  and  _404
REMARK  166  A    between atoms: _403  and  _406
REMARK  167  A    between atoms: _406  and  _407
REMARK  168  A    between atoms: _407  and  _408
REMARK  169  A    between atoms: _411  and  _413
REMARK  170  A    between atoms: _413  and  _414
REMARK  171  A    between atoms: _413  and  _416
REMARK  172  A    between atoms: _416  and  _417
REMARK  173  A    between atoms: _417  and  _418
REMARK  174  A    between atoms: _421  and  _423
REMARK  175  A    between atoms: _423  and  _424
REMARK  176  A    between atoms: _423  and  _426
REMARK  177  A    between atoms: _426  and  _427
REMARK  178  A    between atoms: _432  and  _434
REMARK  179  A    between atoms: _434  and  _435
REMARK  180  A    between atoms: _434  and  _437
REMARK  181  A    between atoms: _437  and  _438
REMARK                            x       y       z     vdW  Elec       q    Type
REMARK                         _______ _______ _______ _____ _____    ______ ____
ROOT
ATOM      1  O   HOH     1      -2.141   7.303  12.996  0.00  0.00    +0.000 OA
ENDROOT
TORSDOF 0
REMARK  Name = ../refined-set-2016/3bex/3bex_pocket.pdb
REMARK  181 active torsions:
REMARK  status: ('A' for Active; 'I' for Inactive)
REMARK    1  A    between atoms: _1  and  _3
REMARK    2  A    between atoms: _3  and  _4
REMARK    3  A    between atoms: _3  and  _6
REMARK    4  A    between atoms: _6  and  _7
REMARK    5  A    between atoms: _10  and  _12
REMARK    6  A    between atoms: _12  and  _13
REMARK    7  A    between atoms: _12  and  _15
REMARK    8  A    between atoms: _18  and  _20
REMARK    9  A    between atoms: _20  and  _21
REMARK   10  A    between atoms: _23  and  _25
REMARK   11  A    between atoms: _25  and  _26
REMARK   12  A    between atoms: _25  and  _28
REMARK   13  A    between atoms: _28  and  _29
REMARK   14  A    between atoms: _34  and  _36
REMARK   15  A    between atoms: _36  and  _37
REMARK   16  A    between atoms: _36  and  _39
REMARK   17  A    between atoms: _39  and  _40
REMARK   18  A    between atoms: _43  and  _45
REMARK   19  A    between atoms: _45  and  _46
REMARK   20  A    between atoms: _45  and  _48
REMARK   21  A    between atoms: _48  and  _49
REMARK   22  A    between atoms: _51  and  _53
REMARK   23  A    between atoms: _53  and  _54
REMARK   24  A    between atoms: _53  and  _56
REMARK   25  A    between atoms: _59  and  _61
REMARK   26  A    between atoms: _61  and  _62
REMARK   27  A    between atoms: _61  and  _64
REMARK   28  A    between atoms: _68  and  _69
REMARK   29  A    between atoms: _74  and  _76
REMARK   30  A    between atoms: _76  and  _77
REMARK   31  A    between atoms: _76  and  _79
REMARK   32  A    between atoms: _82  and  _84
REMARK   33  A    between atoms: _84  and  _85
REMARK   34  A    between atoms: _84  and  _87
REMARK   35  A    between atoms: _87  and  _88
REMARK   36  A    between atoms: _94  and  _95
REMARK   37  A    between atoms: _100  and  _102
REMARK   38  A    between atoms: _102  and  _103
REMARK   39  A    between atoms: _102  and  _105
REMARK   40  A    between atoms: _105  and  _106
REMARK   41  A    between atoms: _108  and  _110
REMARK   42  A    between atoms: _110  and  _111
REMARK   43  A    between atoms: _110  and  _113
REMARK   44  A    between atoms: _113  and  _114
REMARK   45  A    between atoms: _114  and  _115
REMARK   46  A    between atoms: _118  and  _120
REMARK   47  A    between atoms: _120  and  _121
REMARK   48  A    between atoms: _120  and  _123
REMARK   49  A    between atoms: _126  and  _128
REMARK   50  A    between atoms: _128  and  _129
REMARK   51  A    between atoms: _131  and  _133
REMARK   52  A    between atoms: _133  and  _134
REMARK   53  A    between atoms: _137  and  _139
REMARK   54  A    between atoms: _139  and  _140
REMARK   55  A    between atoms: _139  and  _142
REMARK   56  A    between atoms: _142  and  _143
REMARK   57  A    between atoms: _146  and  _148
REMARK   58  A    between atoms: _148  and  _149
REMARK   59  A    between atoms: _148  and  _151
REMARK   60  A    between atoms: _151  and  _152
REMARK   61  A    between atoms: _152  and  _153
REMARK   62  A    between atoms: _153  and  _154
REMARK   63  A    between atoms: _163  and  _165
REMARK   64  A    between atoms: _165  and  _166
REMARK   65  A    between atoms: _165  and  _168
REMARK   66  A    between atoms: _171  and  _173
REMARK   67  A    between atoms: _173  and  _174
REMARK   68  A    between atoms: _173  and  _176
REMARK   69  A    between atoms: _176  and  _177
REMARK   70  A    between atoms: _182  and  _184
REMARK   71  A    between atoms: _184  and  _185
REMARK   72  A    between atoms: _184  and  _187
REMARK   73  A    between atoms: _187  and  _188
REMARK   74  A    between atoms: _191  and  _193
REMARK   75  A    between atoms: _193  and  _194
REMARK   76  A    between atoms: _196  and  _198
REMARK   77  A    between atoms: _198  and  _199
REMARK   78  A    between atoms: _198  and  _201
REMARK   79  A    between atoms: _201  and  _202
REMARK   80  A    between atoms: _205  and  _207
REMARK   81  A    between atoms: _207  and  _208
REMARK   82  A    between atoms: _211  and  _213
REMARK   83  A    between atoms: _213  and  _214
REMARK   84  A    between atoms: _213  and  _216
REMARK   85  A    between atoms: _216  and  _217
REMARK   86  A    between atoms: _220  and  _222
REMARK   87  A    between atoms: _222  and  _223
REMARK   88  A    between atoms: _222  and  _225
REMARK   89  A    between atoms: _225  and  _226
REMARK   90  A    between atoms: _229  and  _231
REMARK   91  A    between atoms: _231  and  _232
REMARK   92  A    between atoms: _231  and  _234
REMARK   93  A    between atoms: _237  and  _239
REMARK   94  A    between atoms: _239  and  _240
REMARK   95  A    between atoms: _239  and  _242
REMARK   96  A    between atoms: _242  and  _243
REMARK   97  A    between atoms: _246  and  _248
REMARK   98  A    between atoms: _248  and  _249
REMARK   99  A    between atoms: _248  and  _251
REMARK  100  A    between atoms: _251  and  _252
REMARK  101  A    between atoms: _257  and  _258
REMARK  102  A    between atoms: _260  and  _262
REMARK  103  A    between atoms: _262  and  _263
REMARK  104  A    between atoms: _265  and  _267
REMARK  105  A    between atoms: _267  and  _268
REMARK  106  A    between atoms: _271  and  _273
REMARK  107  A    between atoms: _273  and  _274
REMARK  108  A    between atoms: _273  and  _276
REMARK  109  A    between atoms: _276  and  _277
REMARK  110  A    between atoms: _280  and  _282
REMARK  111  A    between atoms: _282  and  _283
REMARK  112  A    between atoms: _282  and  _285
REMARK  113  A    between atoms: _285  and  _286
REMARK  114  A    between atoms: _289  and  _291
REMARK  115  A    between atoms: _291  and  _292
REMARK  116  A    between atoms: _291  and  _294
REMARK  117  A    between atoms: _294  and  _295
REMARK  118  A    between atoms: _295  and  _296
REMARK  119  A    between atoms: _298  and  _300
REMARK  120  A    between atoms: _300  and  _301
REMARK  121  A    between atoms: _300  and  _303
REMARK  122  A    between atoms: _303  and  _304
REMARK  123  A    between atoms: _307  and  _309
REMARK  124  A    between atoms: _309  and  _310
REMARK  125  A    between atoms: _309  and  _312
REMARK  126  A    between atoms: _312  and  _313
REMARK  127  A    between atoms: _316  and  _318
REMARK  128  A    between atoms: _318  and  _319
REMARK  129  A    between atoms: _321  and  _323
REMARK  130  A    between atoms: _323  and  _324
REMARK  131  A    between atoms: _323  and  _326
REMARK  132  A    between atoms: _326  and  _327
REMARK  133  A    between atoms: _330  and  _332
REMARK  134  A    between atoms: _332  and  _333
REMARK  135  A    between atoms: _336  and  _338
REMARK  136  A    between atoms: _338  and  _339
REMARK  137  A    between atoms: _338  and  _341
REMARK  138  A    between atoms: _341  and  _342
REMARK  139  A    between atoms: _342  and  _343
REMARK  140  A    between atoms: _343  and  _344
REMARK  141  A    between atoms: _344  and  _345
REMARK  142  A    between atoms: _349  and  _351
REMARK  143  A    between atoms: _351  and  _352
REMARK  144  A    between atoms: _351  and  _354
REMARK  145  A    between atoms: _354  and  _355
REMARK  146  A    between atoms: _359  and  _360
REMARK  147  A    between atoms: _365  and  _367
REMARK  148  A    between atoms: _367  and  _368
REMARK  149  A    between atoms: _370  and  _372
REMARK  150  A    between atoms: _372  and  _373
REMARK  151  A    between atoms: _372  and  _375
REMARK  152  A    between atoms: _375  and  _376
REMARK  153  A    between atoms: _376  and  _377
REMARK  154  A    between atoms: _377  and  _378
REMARK  155  A    between atoms: _378  and  _379
REMARK  156  A    between atoms: _383  and  _385
REMARK  157  A    between atoms: _385  and  _386
REMARK  158  A    between atoms: _385  and  _388
REMARK  159  A    between atoms: _388  and  _389
REMARK  160  A    between atoms: _392  and  _394
REMARK  161  A    between atoms: _394  and  _395
REMARK  162  A    between atoms: _394  and  _397
REMARK  163  A    between atoms: _397  and  _398
REMARK  164  A    between atoms: _401  and  _403
REMARK  165  A    between atoms: _403  and  _404
REMARK  166  A    between atoms: _403  and  _406
REMARK  167  A    between atoms: _406  and  _407
REMARK  168  A    between atoms: _407  and  _408
REMARK  169  A    between atoms: _411  and  _413
REMARK  170  A    between atoms: _413  and  _414
REMARK  171  A    between atoms: _413  and  _416
REMARK  172  A    between atoms: _416  and  _417
REMARK  173  A    between atoms: _417  and  _418
REMARK  174  A    between atoms: _421  and  _423
REMARK  175  A    between atoms: _423  and  _424
REMARK  176  A    between atoms: _423  and  _426
REMARK  177  A    between atoms: _426  and  _427
REMARK  178  A    between atoms: _432  and  _434
REMARK  179  A    between atoms: _434  and  _435
REMARK  180  A    between atoms: _434  and  _437
REMARK  181  A    between atoms: _437  and  _438
REMARK                            x       y       z     vdW  Elec       q    Type
REMARK                         _______ _______ _______ _____ _____    ______ ____
ROOT
ATOM      1  O   HOH     1       2.788   7.163   6.328  0.00  0.00    +0.000 OA
ENDROOT
TORSDOF 0
REMARK  Name = ../refined-set-2016/3bex/3bex_pocket.pdb
REMARK  181 active torsions:
REMARK  status: ('A' for Active; 'I' for Inactive)
REMARK    1  A    between atoms: _1  and  _3
REMARK    2  A    between atoms: _3  and  _4
REMARK    3  A    between atoms: _3  and  _6
REMARK    4  A    between atoms: _6  and  _7
REMARK    5  A    between atoms: _10  and  _12
REMARK    6  A    between atoms: _12  and  _13
REMARK    7  A    between atoms: _12  and  _15
REMARK    8  A    between atoms: _18  and  _20
REMARK    9  A    between atoms: _20  and  _21
REMARK   10  A    between atoms: _23  and  _25
REMARK   11  A    between atoms: _25  and  _26
REMARK   12  A    between atoms: _25  and  _28
REMARK   13  A    between atoms: _28  and  _29
REMARK   14  A    between atoms: _34  and  _36
REMARK   15  A    between atoms: _36  and  _37
REMARK   16  A    between atoms: _36  and  _39
REMARK   17  A    between atoms: _39  and  _40
REMARK   18  A    between atoms: _43  and  _45
REMARK   19  A    between atoms: _45  and  _46
REMARK   20  A    between atoms: _45  and  _48
REMARK   21  A    between atoms: _48  and  _49
REMARK   22  A    between atoms: _51  and  _53
REMARK   23  A    between atoms: _53  and  _54
REMARK   24  A    between atoms: _53  and  _56
REMARK   25  A    between atoms: _59  and  _61
REMARK   26  A    between atoms: _61  and  _62
REMARK   27  A    between atoms: _61  and  _64
REMARK   28  A    between atoms: _68  and  _69
REMARK   29  A    between atoms: _74  and  _76
REMARK   30  A    between atoms: _76  and  _77
REMARK   31  A    between atoms: _76  and  _79
REMARK   32  A    between atoms: _82  and  _84
REMARK   33  A    between atoms: _84  and  _85
REMARK   34  A    between atoms: _84  and  _87
REMARK   35  A    between atoms: _87  and  _88
REMARK   36  A    between atoms: _94  and  _95
REMARK   37  A    between atoms: _100  and  _102
REMARK   38  A    between atoms: _102  and  _103
REMARK   39  A    between atoms: _102  and  _105
REMARK   40  A    between atoms: _105  and  _106
REMARK   41  A    between atoms: _108  and  _110
REMARK   42  A    between atoms: _110  and  _111
REMARK   43  A    between atoms: _110  and  _113
REMARK   44  A    between atoms: _113  and  _114
REMARK   45  A    between atoms: _114  and  _115
REMARK   46  A    between atoms: _118  and  _120
REMARK   47  A    between atoms: _120  and  _121
REMARK   48  A    between atoms: _120  and  _123
REMARK   49  A    between atoms: _126  and  _128
REMARK   50  A    between atoms: _128  and  _129
REMARK   51  A    between atoms: _131  and  _133
REMARK   52  A    between atoms: _133  and  _134
REMARK   53  A    between atoms: _137  and  _139
REMARK   54  A    between atoms: _139  and  _140
REMARK   55  A    between atoms: _139  and  _142
REMARK   56  A    between atoms: _142  and  _143
REMARK   57  A    between atoms: _146  and  _148
REMARK   58  A    between atoms: _148  and  _149
REMARK   59  A    between atoms: _148  and  _151
REMARK   60  A    between atoms: _151  and  _152
REMARK   61  A    between atoms: _152  and  _153
REMARK   62  A    between atoms: _153  and  _154
REMARK   63  A    between atoms: _163  and  _165
REMARK   64  A    between atoms: _165  and  _166
REMARK   65  A    between atoms: _165  and  _168
REMARK   66  A    between atoms: _171  and  _173
REMARK   67  A    between atoms: _173  and  _174
REMARK   68  A    between atoms: _173  and  _176
REMARK   69  A    between atoms: _176  and  _177
REMARK   70  A    between atoms: _182  and  _184
REMARK   71  A    between atoms: _184  and  _185
REMARK   72  A    between atoms: _184  and  _187
REMARK   73  A    between atoms: _187  and  _188
REMARK   74  A    between atoms: _191  and  _193
REMARK   75  A    between atoms: _193  and  _194
REMARK   76  A    between atoms: _196  and  _198
REMARK   77  A    between atoms: _198  and  _199
REMARK   78  A    between atoms: _198  and  _201
REMARK   79  A    between atoms: _201  and  _202
REMARK   80  A    between atoms: _205  and  _207
REMARK   81  A    between atoms: _207  and  _208
REMARK   82  A    between atoms: _211  and  _213
REMARK   83  A    between atoms: _213  and  _214
REMARK   84  A    between atoms: _213  and  _216
REMARK   85  A    between atoms: _216  and  _217
REMARK   86  A    between atoms: _220  and  _222
REMARK   87  A    between atoms: _222  and  _223
REMARK   88  A    between atoms: _222  and  _225
REMARK   89  A    between atoms: _225  and  _226
REMARK   90  A    between atoms: _229  and  _231
REMARK   91  A    between atoms: _231  and  _232
REMARK   92  A    between atoms: _231  and  _234
REMARK   93  A    between atoms: _237  and  _239
REMARK   94  A    between atoms: _239  and  _240
REMARK   95  A    between atoms: _239  and  _242
REMARK   96  A    between atoms: _242  and  _243
REMARK   97  A    between atoms: _246  and  _248
REMARK   98  A    between atoms: _248  and  _249
REMARK   99  A    between atoms: _248  and  _251
REMARK  100  A    between atoms: _251  and  _252
REMARK  101  A    between atoms: _257  and  _258
REMARK  102  A    between atoms: _260  and  _262
REMARK  103  A    between atoms: _262  and  _263
REMARK  104  A    between atoms: _265  and  _267
REMARK  105  A    between atoms: _267  and  _268
REMARK  106  A    between atoms: _271  and  _273
REMARK  107  A    between atoms: _273  and  _274
REMARK  108  A    between atoms: _273  and  _276
REMARK  109  A    between atoms: _276  and  _277
REMARK  110  A    between atoms: _280  and  _282
REMARK  111  A    between atoms: _282  and  _283
REMARK  112  A    between atoms: _282  and  _285
REMARK  113  A    between atoms: _285  and  _286
REMARK  114  A    between atoms: _289  and  _291
REMARK  115  A    between atoms: _291  and  _292
REMARK  116  A    between atoms: _291  and  _294
REMARK  117  A    between atoms: _294  and  _295
REMARK  118  A    between atoms: _295  and  _296
REMARK  119  A    between atoms: _298  and  _300
REMARK  120  A    between atoms: _300  and  _301
REMARK  121  A    between atoms: _300  and  _303
REMARK  122  A    between atoms: _303  and  _304
REMARK  123  A    between atoms: _307  and  _309
REMARK  124  A    between atoms: _309  and  _310
REMARK  125  A    between atoms: _309  and  _312
REMARK  126  A    between atoms: _312  and  _313
REMARK  127  A    between atoms: _316  and  _318
REMARK  128  A    between atoms: _318  and  _319
REMARK  129  A    between atoms: _321  and  _323
REMARK  130  A    between atoms: _323  and  _324
REMARK  131  A    between atoms: _323  and  _326
REMARK  132  A    between atoms: _326  and  _327
REMARK  133  A    between atoms: _330  and  _332
REMARK  134  A    between atoms: _332  and  _333
REMARK  135  A    between atoms: _336  and  _338
REMARK  136  A    between atoms: _338  and  _339
REMARK  137  A    between atoms: _338  and  _341
REMARK  138  A    between atoms: _341  and  _342
REMARK  139  A    between atoms: _342  and  _343
REMARK  140  A    between atoms: _343  and  _344
REMARK  141  A    between atoms: _344  and  _345
REMARK  142  A    between atoms: _349  and  _351
REMARK  143  A    between atoms: _351  and  _352
REMARK  144  A    between atoms: _351  and  _354
REMARK  145  A    between atoms: _354  and  _355
REMARK  146  A    between atoms: _359  and  _360
REMARK  147  A    between atoms: _365  and  _367
REMARK  148  A    between atoms: _367  and  _368
REMARK  149  A    between atoms: _370  and  _372
REMARK  150  A    between atoms: _372  and  _373
REMARK  151  A    between atoms: _372  and  _375
REMARK  152  A    between atoms: _375  and  _376
REMARK  153  A    between atoms: _376  and  _377
REMARK  154  A    between atoms: _377  and  _378
REMARK  155  A    between atoms: _378  and  _379
REMARK  156  A    between atoms: _383  and  _385
REMARK  157  A    between atoms: _385  and  _386
REMARK  158  A    between atoms: _385  and  _388
REMARK  159  A    between atoms: _388  and  _389
REMARK  160  A    between atoms: _392  and  _394
REMARK  161  A    between atoms: _394  and  _395
REMARK  162  A    between atoms: _394  and  _397
REMARK  163  A    between atoms: _397  and  _398
REMARK  164  A    between atoms: _401  and  _403
REMARK  165  A    between atoms: _403  and  _404
REMARK  166  A    between atoms: _403  and  _406
REMARK  167  A    between atoms: _406  and  _407
REMARK  168  A    between atoms: _407  and  _408
REMARK  169  A    between atoms: _411  and  _413
REMARK  170  A    between atoms: _413  and  _414
REMARK  171  A    between atoms: _413  and  _416
REMARK  172  A    between atoms: _416  and  _417
REMARK  173  A    between atoms: _417  and  _418
REMARK  174  A    between atoms: _421  and  _423
REMARK  175  A    between atoms: _423  and  _424
REMARK  176  A    between atoms: _423  and  _426
REMARK  177  A    between atoms: _426  and  _427
REMARK  178  A    between atoms: _432  and  _434
REMARK  179  A    between atoms: _434  and  _435
REMARK  180  A    between atoms: _434  and  _437
REMARK  181  A    between atoms: _437  and  _438
REMARK                            x       y       z     vdW  Elec       q    Type
REMARK                         _______ _______ _______ _____ _____    ______ ____
ROOT
ATOM      1  O   HOH     1       4.736  17.557  17.804  0.00  0.00    +0.000 OA
ENDROOT
TORSDOF 0
REMARK  Name = ../refined-set-2016/3bex/3bex_pocket.pdb
REMARK  181 active torsions:
REMARK  status: ('A' for Active; 'I' for Inactive)
REMARK    1  A    between atoms: _1  and  _3
REMARK    2  A    between atoms: _3  and  _4
REMARK    3  A    between atoms: _3  and  _6
REMARK    4  A    between atoms: _6  and  _7
REMARK    5  A    between atoms: _10  and  _12
REMARK    6  A    between atoms: _12  and  _13
REMARK    7  A    between atoms: _12  and  _15
REMARK    8  A    between atoms: _18  and  _20
REMARK    9  A    between atoms: _20  and  _21
REMARK   10  A    between atoms: _23  and  _25
REMARK   11  A    between atoms: _25  and  _26
REMARK   12  A    between atoms: _25  and  _28
REMARK   13  A    between atoms: _28  and  _29
REMARK   14  A    between atoms: _34  and  _36
REMARK   15  A    between atoms: _36  and  _37
REMARK   16  A    between atoms: _36  and  _39
REMARK   17  A    between atoms: _39  and  _40
REMARK   18  A    between atoms: _43  and  _45
REMARK   19  A    between atoms: _45  and  _46
REMARK   20  A    between atoms: _45  and  _48
REMARK   21  A    between atoms: _48  and  _49
REMARK   22  A    between atoms: _51  and  _53
REMARK   23  A    between atoms: _53  and  _54
REMARK   24  A    between atoms: _53  and  _56
REMARK   25  A    between atoms: _59  and  _61
REMARK   26  A    between atoms: _61  and  _62
REMARK   27  A    between atoms: _61  and  _64
REMARK   28  A    between atoms: _68  and  _69
REMARK   29  A    between atoms: _74  and  _76
REMARK   30  A    between atoms: _76  and  _77
REMARK   31  A    between atoms: _76  and  _79
REMARK   32  A    between atoms: _82  and  _84
REMARK   33  A    between atoms: _84  and  _85
REMARK   34  A    between atoms: _84  and  _87
REMARK   35  A    between atoms: _87  and  _88
REMARK   36  A    between atoms: _94  and  _95
REMARK   37  A    between atoms: _100  and  _102
REMARK   38  A    between atoms: _102  and  _103
REMARK   39  A    between atoms: _102  and  _105
REMARK   40  A    between atoms: _105  and  _106
REMARK   41  A    between atoms: _108  and  _110
REMARK   42  A    between atoms: _110  and  _111
REMARK   43  A    between atoms: _110  and  _113
REMARK   44  A    between atoms: _113  and  _114
REMARK   45  A    between atoms: _114  and  _115
REMARK   46  A    between atoms: _118  and  _120
REMARK   47  A    between atoms: _120  and  _121
REMARK   48  A    between atoms: _120  and  _123
REMARK   49  A    between atoms: _126  and  _128
REMARK   50  A    between atoms: _128  and  _129
REMARK   51  A    between atoms: _131  and  _133
REMARK   52  A    between atoms: _133  and  _134
REMARK   53  A    between atoms: _137  and  _139
REMARK   54  A    between atoms: _139  and  _140
REMARK   55  A    between atoms: _139  and  _142
REMARK   56  A    between atoms: _142  and  _143
REMARK   57  A    between atoms: _146  and  _148
REMARK   58  A    between atoms: _148  and  _149
REMARK   59  A    between atoms: _148  and  _151
REMARK   60  A    between atoms: _151  and  _152
REMARK   61  A    between atoms: _152  and  _153
REMARK   62  A    between atoms: _153  and  _154
REMARK   63  A    between atoms: _163  and  _165
REMARK   64  A    between atoms: _165  and  _166
REMARK   65  A    between atoms: _165  and  _168
REMARK   66  A    between atoms: _171  and  _173
REMARK   67  A    between atoms: _173  and  _174
REMARK   68  A    between atoms: _173  and  _176
REMARK   69  A    between atoms: _176  and  _177
REMARK   70  A    between atoms: _182  and  _184
REMARK   71  A    between atoms: _184  and  _185
REMARK   72  A    between atoms: _184  and  _187
REMARK   73  A    between atoms: _187  and  _188
REMARK   74  A    between atoms: _191  and  _193
REMARK   75  A    between atoms: _193  and  _194
REMARK   76  A    between atoms: _196  and  _198
REMARK   77  A    between atoms: _198  and  _199
REMARK   78  A    between atoms: _198  and  _201
REMARK   79  A    between atoms: _201  and  _202
REMARK   80  A    between atoms: _205  and  _207
REMARK   81  A    between atoms: _207  and  _208
REMARK   82  A    between atoms: _211  and  _213
REMARK   83  A    between atoms: _213  and  _214
REMARK   84  A    between atoms: _213  and  _216
REMARK   85  A    between atoms: _216  and  _217
REMARK   86  A    between atoms: _220  and  _222
REMARK   87  A    between atoms: _222  and  _223
REMARK   88  A    between atoms: _222  and  _225
REMARK   89  A    between atoms: _225  and  _226
REMARK   90  A    between atoms: _229  and  _231
REMARK   91  A    between atoms: _231  and  _232
REMARK   92  A    between atoms: _231  and  _234
REMARK   93  A    between atoms: _237  and  _239
REMARK   94  A    between atoms: _239  and  _240
REMARK   95  A    between atoms: _239  and  _242
REMARK   96  A    between atoms: _242  and  _243
REMARK   97  A    between atoms: _246  and  _248
REMARK   98  A    between atoms: _248  and  _249
REMARK   99  A    between atoms: _248  and  _251
REMARK  100  A    between atoms: _251  and  _252
REMARK  101  A    between atoms: _257  and  _258
REMARK  102  A    between atoms: _260  and  _262
REMARK  103  A    between atoms: _262  and  _263
REMARK  104  A    between atoms: _265  and  _267
REMARK  105  A    between atoms: _267  and  _268
REMARK  106  A    between atoms: _271  and  _273
REMARK  107  A    between atoms: _273  and  _274
REMARK  108  A    between atoms: _273  and  _276
REMARK  109  A    between atoms: _276  and  _277
REMARK  110  A    between atoms: _280  and  _282
REMARK  111  A    between atoms: _282  and  _283
REMARK  112  A    between atoms: _282  and  _285
REMARK  113  A    between atoms: _285  and  _286
REMARK  114  A    between atoms: _289  and  _291
REMARK  115  A    between atoms: _291  and  _292
REMARK  116  A    between atoms: _291  and  _294
REMARK  117  A    between atoms: _294  and  _295
REMARK  118  A    between atoms: _295  and  _296
REMARK  119  A    between atoms: _298  and  _300
REMARK  120  A    between atoms: _300  and  _301
REMARK  121  A    between atoms: _300  and  _303
REMARK  122  A    between atoms: _303  and  _304
REMARK  123  A    between atoms: _307  and  _309
REMARK  124  A    between atoms: _309  and  _310
REMARK  125  A    between atoms: _309  and  _312
REMARK  126  A    between atoms: _312  and  _313
REMARK  127  A    between atoms: _316  and  _318
REMARK  128  A    between atoms: _318  and  _319
REMARK  129  A    between atoms: _321  and  _323
REMARK  130  A    between atoms: _323  and  _324
REMARK  131  A    between atoms: _323  and  _326
REMARK  132  A    between atoms: _326  and  _327
REMARK  133  A    between atoms: _330  and  _332
REMARK  134  A    between atoms: _332  and  _333
REMARK  135  A    between atoms: _336  and  _338
REMARK  136  A    between atoms: _338  and  _339
REMARK  137  A    between atoms: _338  and  _341
REMARK  138  A    between atoms: _341  and  _342
REMARK  139  A    between atoms: _342  and  _343
REMARK  140  A    between atoms: _343  and  _344
REMARK  141  A    between atoms: _344  and  _345
REMARK  142  A    between atoms: _349  and  _351
REMARK  143  A    between atoms: _351  and  _352
REMARK  144  A    between atoms: _351  and  _354
REMARK  145  A    between atoms: _354  and  _355
REMARK  146  A    between atoms: _359  and  _360
REMARK  147  A    between atoms: _365  and  _367
REMARK  148  A    between atoms: _367  and  _368
REMARK  149  A    between atoms: _370  and  _372
REMARK  150  A    between atoms: _372  and  _373
REMARK  151  A    between atoms: _372  and  _375
REMARK  152  A    between atoms: _375  and  _376
REMARK  153  A    between atoms: _376  and  _377
REMARK  154  A    between atoms: _377  and  _378
REMARK  155  A    between atoms: _378  and  _379
REMARK  156  A    between atoms: _383  and  _385
REMARK  157  A    between atoms: _385  and  _386
REMARK  158  A    between atoms: _385  and  _388
REMARK  159  A    between atoms: _388  and  _389
REMARK  160  A    between atoms: _392  and  _394
REMARK  161  A    between atoms: _394  and  _395
REMARK  162  A    between atoms: _394  and  _397
REMARK  163  A    between atoms: _397  and  _398
REMARK  164  A    between atoms: _401  and  _403
REMARK  165  A    between atoms: _403  and  _404
REMARK  166  A    between atoms: _403  and  _406
REMARK  167  A    between atoms: _406  and  _407
REMARK  168  A    between atoms: _407  and  _408
REMARK  169  A    between atoms: _411  and  _413
REMARK  170  A    between atoms: _413  and  _414
REMARK  171  A    between atoms: _413  and  _416
REMARK  172  A    between atoms: _416  and  _417
REMARK  173  A    between atoms: _417  and  _418
REMARK  174  A    between atoms: _421  and  _423
REMARK  175  A    between atoms: _423  and  _424
REMARK  176  A    between atoms: _423  and  _426
REMARK  177  A    between atoms: _426  and  _427
REMARK  178  A    between atoms: _432  and  _434
REMARK  179  A    between atoms: _434  and  _435
REMARK  180  A    between atoms: _434  and  _437
REMARK  181  A    between atoms: _437  and  _438
REMARK                            x       y       z     vdW  Elec       q    Type
REMARK                         _______ _______ _______ _____ _____    ______ ____
ROOT
ATOM      1  O   HOH     1       5.550  15.517  19.581  0.00  0.00    +0.000 OA
ENDROOT
TORSDOF 0
REMARK  Name = ../refined-set-2016/3bex/3bex_pocket.pdb
REMARK  181 active torsions:
REMARK  status: ('A' for Active; 'I' for Inactive)
REMARK    1  A    between atoms: _1  and  _3
REMARK    2  A    between atoms: _3  and  _4
REMARK    3  A    between atoms: _3  and  _6
REMARK    4  A    between atoms: _6  and  _7
REMARK    5  A    between atoms: _10  and  _12
REMARK    6  A    between atoms: _12  and  _13
REMARK    7  A    between atoms: _12  and  _15
REMARK    8  A    between atoms: _18  and  _20
REMARK    9  A    between atoms: _20  and  _21
REMARK   10  A    between atoms: _23  and  _25
REMARK   11  A    between atoms: _25  and  _26
REMARK   12  A    between atoms: _25  and  _28
REMARK   13  A    between atoms: _28  and  _29
REMARK   14  A    between atoms: _34  and  _36
REMARK   15  A    between atoms: _36  and  _37
REMARK   16  A    between atoms: _36  and  _39
REMARK   17  A    between atoms: _39  and  _40
REMARK   18  A    between atoms: _43  and  _45
REMARK   19  A    between atoms: _45  and  _46
REMARK   20  A    between atoms: _45  and  _48
REMARK   21  A    between atoms: _48  and  _49
REMARK   22  A    between atoms: _51  and  _53
REMARK   23  A    between atoms: _53  and  _54
REMARK   24  A    between atoms: _53  and  _56
REMARK   25  A    between atoms: _59  and  _61
REMARK   26  A    between atoms: _61  and  _62
REMARK   27  A    between atoms: _61  and  _64
REMARK   28  A    between atoms: _68  and  _69
REMARK   29  A    between atoms: _74  and  _76
REMARK   30  A    between atoms: _76  and  _77
REMARK   31  A    between atoms: _76  and  _79
REMARK   32  A    between atoms: _82  and  _84
REMARK   33  A    between atoms: _84  and  _85
REMARK   34  A    between atoms: _84  and  _87
REMARK   35  A    between atoms: _87  and  _88
REMARK   36  A    between atoms: _94  and  _95
REMARK   37  A    between atoms: _100  and  _102
REMARK   38  A    between atoms: _102  and  _103
REMARK   39  A    between atoms: _102  and  _105
REMARK   40  A    between atoms: _105  and  _106
REMARK   41  A    between atoms: _108  and  _110
REMARK   42  A    between atoms: _110  and  _111
REMARK   43  A    between atoms: _110  and  _113
REMARK   44  A    between atoms: _113  and  _114
REMARK   45  A    between atoms: _114  and  _115
REMARK   46  A    between atoms: _118  and  _120
REMARK   47  A    between atoms: _120  and  _121
REMARK   48  A    between atoms: _120  and  _123
REMARK   49  A    between atoms: _126  and  _128
REMARK   50  A    between atoms: _128  and  _129
REMARK   51  A    between atoms: _131  and  _133
REMARK   52  A    between atoms: _133  and  _134
REMARK   53  A    between atoms: _137  and  _139
REMARK   54  A    between atoms: _139  and  _140
REMARK   55  A    between atoms: _139  and  _142
REMARK   56  A    between atoms: _142  and  _143
REMARK   57  A    between atoms: _146  and  _148
REMARK   58  A    between atoms: _148  and  _149
REMARK   59  A    between atoms: _148  and  _151
REMARK   60  A    between atoms: _151  and  _152
REMARK   61  A    between atoms: _152  and  _153
REMARK   62  A    between atoms: _153  and  _154
REMARK   63  A    between atoms: _163  and  _165
REMARK   64  A    between atoms: _165  and  _166
REMARK   65  A    between atoms: _165  and  _168
REMARK   66  A    between atoms: _171  and  _173
REMARK   67  A    between atoms: _173  and  _174
REMARK   68  A    between atoms: _173  and  _176
REMARK   69  A    between atoms: _176  and  _177
REMARK   70  A    between atoms: _182  and  _184
REMARK   71  A    between atoms: _184  and  _185
REMARK   72  A    between atoms: _184  and  _187
REMARK   73  A    between atoms: _187  and  _188
REMARK   74  A    between atoms: _191  and  _193
REMARK   75  A    between atoms: _193  and  _194
REMARK   76  A    between atoms: _196  and  _198
REMARK   77  A    between atoms: _198  and  _199
REMARK   78  A    between atoms: _198  and  _201
REMARK   79  A    between atoms: _201  and  _202
REMARK   80  A    between atoms: _205  and  _207
REMARK   81  A    between atoms: _207  and  _208
REMARK   82  A    between atoms: _211  and  _213
REMARK   83  A    between atoms: _213  and  _214
REMARK   84  A    between atoms: _213  and  _216
REMARK   85  A    between atoms: _216  and  _217
REMARK   86  A    between atoms: _220  and  _222
REMARK   87  A    between atoms: _222  and  _223
REMARK   88  A    between atoms: _222  and  _225
REMARK   89  A    between atoms: _225  and  _226
REMARK   90  A    between atoms: _229  and  _231
REMARK   91  A    between atoms: _231  and  _232
REMARK   92  A    between atoms: _231  and  _234
REMARK   93  A    between atoms: _237  and  _239
REMARK   94  A    between atoms: _239  and  _240
REMARK   95  A    between atoms: _239  and  _242
REMARK   96  A    between atoms: _242  and  _243
REMARK   97  A    between atoms: _246  and  _248
REMARK   98  A    between atoms: _248  and  _249
REMARK   99  A    between atoms: _248  and  _251
REMARK  100  A    between atoms: _251  and  _252
REMARK  101  A    between atoms: _257  and  _258
REMARK  102  A    between atoms: _260  and  _262
REMARK  103  A    between atoms: _262  and  _263
REMARK  104  A    between atoms: _265  and  _267
REMARK  105  A    between atoms: _267  and  _268
REMARK  106  A    between atoms: _271  and  _273
REMARK  107  A    between atoms: _273  and  _274
REMARK  108  A    between atoms: _273  and  _276
REMARK  109  A    between atoms: _276  and  _277
REMARK  110  A    between atoms: _280  and  _282
REMARK  111  A    between atoms: _282  and  _283
REMARK  112  A    between atoms: _282  and  _285
REMARK  113  A    between atoms: _285  and  _286
REMARK  114  A    between atoms: _289  and  _291
REMARK  115  A    between atoms: _291  and  _292
REMARK  116  A    between atoms: _291  and  _294
REMARK  117  A    between atoms: _294  and  _295
REMARK  118  A    between atoms: _295  and  _296
REMARK  119  A    between atoms: _298  and  _300
REMARK  120  A    between atoms: _300  and  _301
REMARK  121  A    between atoms: _300  and  _303
REMARK  122  A    between atoms: _303  and  _304
REMARK  123  A    between atoms: _307  and  _309
REMARK  124  A    between atoms: _309  and  _310
REMARK  125  A    between atoms: _309  and  _312
REMARK  126  A    between atoms: _312  and  _313
REMARK  127  A    between atoms: _316  and  _318
REMARK  128  A    between atoms: _318  and  _319
REMARK  129  A    between atoms: _321  and  _323
REMARK  130  A    between atoms: _323  and  _324
REMARK  131  A    between atoms: _323  and  _326
REMARK  132  A    between atoms: _326  and  _327
REMARK  133  A    between atoms: _330  and  _332
REMARK  134  A    between atoms: _332  and  _333
REMARK  135  A    between atoms: _336  and  _338
REMARK  136  A    between atoms: _338  and  _339
REMARK  137  A    between atoms: _338  and  _341
REMARK  138  A    between atoms: _341  and  _342
REMARK  139  A    between atoms: _342  and  _343
REMARK  140  A    between atoms: _343  and  _344
REMARK  141  A    between atoms: _344  and  _345
REMARK  142  A    between atoms: _349  and  _351
REMARK  143  A    between atoms: _351  and  _352
REMARK  144  A    between atoms: _351  and  _354
REMARK  145  A    between atoms: _354  and  _355
REMARK  146  A    between atoms: _359  and  _360
REMARK  147  A    between atoms: _365  and  _367
REMARK  148  A    between atoms: _367  and  _368
REMARK  149  A    between atoms: _370  and  _372
REMARK  150  A    between atoms: _372  and  _373
REMARK  151  A    between atoms: _372  and  _375
REMARK  152  A    between atoms: _375  and  _376
REMARK  153  A    between atoms: _376  and  _377
REMARK  154  A    between atoms: _377  and  _378
REMARK  155  A    between atoms: _378  and  _379
REMARK  156  A    between atoms: _383  and  _385
REMARK  157  A    between atoms: _385  and  _386
REMARK  158  A    between atoms: _385  and  _388
REMARK  159  A    between atoms: _388  and  _389
REMARK  160  A    between atoms: _392  and  _394
REMARK  161  A    between atoms: _394  and  _395
REMARK  162  A    between atoms: _394  and  _397
REMARK  163  A    between atoms: _397  and  _398
REMARK  164  A    between atoms: _401  and  _403
REMARK  165  A    between atoms: _403  and  _404
REMARK  166  A    between atoms: _403  and  _406
REMARK  167  A    between atoms: _406  and  _407
REMARK  168  A    between atoms: _407  and  _408
REMARK  169  A    between atoms: _411  and  _413
REMARK  170  A    between atoms: _413  and  _414
REMARK  171  A    between atoms: _413  and  _416
REMARK  172  A    between atoms: _416  and  _417
REMARK  173  A    between atoms: _417  and  _418
REMARK  174  A    between atoms: _421  and  _423
REMARK  175  A    between atoms: _423  and  _424
REMARK  176  A    between atoms: _423  and  _426
REMARK  177  A    between atoms: _426  and  _427
REMARK  178  A    between atoms: _432  and  _434
REMARK  179  A    between atoms: _434  and  _435
REMARK  180  A    between atoms: _434  and  _437
REMARK  181  A    between atoms: _437  and  _438
REMARK                            x       y       z     vdW  Elec       q    Type
REMARK                         _______ _______ _______ _____ _____    ______ ____
ROOT
ATOM      1  O   HOH     1       2.443  17.271  16.355  0.00  0.00    +0.000 OA
ENDROOT
TORSDOF 0
REMARK  Name = ../refined-set-2016/3bex/3bex_pocket.pdb
REMARK  181 active torsions:
REMARK  status: ('A' for Active; 'I' for Inactive)
REMARK    1  A    between atoms: _1  and  _3
REMARK    2  A    between atoms: _3  and  _4
REMARK    3  A    between atoms: _3  and  _6
REMARK    4  A    between atoms: _6  and  _7
REMARK    5  A    between atoms: _10  and  _12
REMARK    6  A    between atoms: _12  and  _13
REMARK    7  A    between atoms: _12  and  _15
REMARK    8  A    between atoms: _18  and  _20
REMARK    9  A    between atoms: _20  and  _21
REMARK   10  A    between atoms: _23  and  _25
REMARK   11  A    between atoms: _25  and  _26
REMARK   12  A    between atoms: _25  and  _28
REMARK   13  A    between atoms: _28  and  _29
REMARK   14  A    between atoms: _34  and  _36
REMARK   15  A    between atoms: _36  and  _37
REMARK   16  A    between atoms: _36  and  _39
REMARK   17  A    between atoms: _39  and  _40
REMARK   18  A    between atoms: _43  and  _45
REMARK   19  A    between atoms: _45  and  _46
REMARK   20  A    between atoms: _45  and  _48
REMARK   21  A    between atoms: _48  and  _49
REMARK   22  A    between atoms: _51  and  _53
REMARK   23  A    between atoms: _53  and  _54
REMARK   24  A    between atoms: _53  and  _56
REMARK   25  A    between atoms: _59  and  _61
REMARK   26  A    between atoms: _61  and  _62
REMARK   27  A    between atoms: _61  and  _64
REMARK   28  A    between atoms: _68  and  _69
REMARK   29  A    between atoms: _74  and  _76
REMARK   30  A    between atoms: _76  and  _77
REMARK   31  A    between atoms: _76  and  _79
REMARK   32  A    between atoms: _82  and  _84
REMARK   33  A    between atoms: _84  and  _85
REMARK   34  A    between atoms: _84  and  _87
REMARK   35  A    between atoms: _87  and  _88
REMARK   36  A    between atoms: _94  and  _95
REMARK   37  A    between atoms: _100  and  _102
REMARK   38  A    between atoms: _102  and  _103
REMARK   39  A    between atoms: _102  and  _105
REMARK   40  A    between atoms: _105  and  _106
REMARK   41  A    between atoms: _108  and  _110
REMARK   42  A    between atoms: _110  and  _111
REMARK   43  A    between atoms: _110  and  _113
REMARK   44  A    between atoms: _113  and  _114
REMARK   45  A    between atoms: _114  and  _115
REMARK   46  A    between atoms: _118  and  _120
REMARK   47  A    between atoms: _120  and  _121
REMARK   48  A    between atoms: _120  and  _123
REMARK   49  A    between atoms: _126  and  _128
REMARK   50  A    between atoms: _128  and  _129
REMARK   51  A    between atoms: _131  and  _133
REMARK   52  A    between atoms: _133  and  _134
REMARK   53  A    between atoms: _137  and  _139
REMARK   54  A    between atoms: _139  and  _140
REMARK   55  A    between atoms: _139  and  _142
REMARK   56  A    between atoms: _142  and  _143
REMARK   57  A    between atoms: _146  and  _148
REMARK   58  A    between atoms: _148  and  _149
REMARK   59  A    between atoms: _148  and  _151
REMARK   60  A    between atoms: _151  and  _152
REMARK   61  A    between atoms: _152  and  _153
REMARK   62  A    between atoms: _153  and  _154
REMARK   63  A    between atoms: _163  and  _165
REMARK   64  A    between atoms: _165  and  _166
REMARK   65  A    between atoms: _165  and  _168
REMARK   66  A    between atoms: _171  and  _173
REMARK   67  A    between atoms: _173  and  _174
REMARK   68  A    between atoms: _173  and  _176
REMARK   69  A    between atoms: _176  and  _177
REMARK   70  A    between atoms: _182  and  _184
REMARK   71  A    between atoms: _184  and  _185
REMARK   72  A    between atoms: _184  and  _187
REMARK   73  A    between atoms: _187  and  _188
REMARK   74  A    between atoms: _191  and  _193
REMARK   75  A    between atoms: _193  and  _194
REMARK   76  A    between atoms: _196  and  _198
REMARK   77  A    between atoms: _198  and  _199
REMARK   78  A    between atoms: _198  and  _201
REMARK   79  A    between atoms: _201  and  _202
REMARK   80  A    between atoms: _205  and  _207
REMARK   81  A    between atoms: _207  and  _208
REMARK   82  A    between atoms: _211  and  _213
REMARK   83  A    between atoms: _213  and  _214
REMARK   84  A    between atoms: _213  and  _216
REMARK   85  A    between atoms: _216  and  _217
REMARK   86  A    between atoms: _220  and  _222
REMARK   87  A    between atoms: _222  and  _223
REMARK   88  A    between atoms: _222  and  _225
REMARK   89  A    between atoms: _225  and  _226
REMARK   90  A    between atoms: _229  and  _231
REMARK   91  A    between atoms: _231  and  _232
REMARK   92  A    between atoms: _231  and  _234
REMARK   93  A    between atoms: _237  and  _239
REMARK   94  A    between atoms: _239  and  _240
REMARK   95  A    between atoms: _239  and  _242
REMARK   96  A    between atoms: _242  and  _243
REMARK   97  A    between atoms: _246  and  _248
REMARK   98  A    between atoms: _248  and  _249
REMARK   99  A    between atoms: _248  and  _251
REMARK  100  A    between atoms: _251  and  _252
REMARK  101  A    between atoms: _257  and  _258
REMARK  102  A    between atoms: _260  and  _262
REMARK  103  A    between atoms: _262  and  _263
REMARK  104  A    between atoms: _265  and  _267
REMARK  105  A    between atoms: _267  and  _268
REMARK  106  A    between atoms: _271  and  _273
REMARK  107  A    between atoms: _273  and  _274
REMARK  108  A    between atoms: _273  and  _276
REMARK  109  A    between atoms: _276  and  _277
REMARK  110  A    between atoms: _280  and  _282
REMARK  111  A    between atoms: _282  and  _283
REMARK  112  A    between atoms: _282  and  _285
REMARK  113  A    between atoms: _285  and  _286
REMARK  114  A    between atoms: _289  and  _291
REMARK  115  A    between atoms: _291  and  _292
REMARK  116  A    between atoms: _291  and  _294
REMARK  117  A    between atoms: _294  and  _295
REMARK  118  A    between atoms: _295  and  _296
REMARK  119  A    between atoms: _298  and  _300
REMARK  120  A    between atoms: _300  and  _301
REMARK  121  A    between atoms: _300  and  _303
REMARK  122  A    between atoms: _303  and  _304
REMARK  123  A    between atoms: _307  and  _309
REMARK  124  A    between atoms: _309  and  _310
REMARK  125  A    between atoms: _309  and  _312
REMARK  126  A    between atoms: _312  and  _313
REMARK  127  A    between atoms: _316  and  _318
REMARK  128  A    between atoms: _318  and  _319
REMARK  129  A    between atoms: _321  and  _323
REMARK  130  A    between atoms: _323  and  _324
REMARK  131  A    between atoms: _323  and  _326
REMARK  132  A    between atoms: _326  and  _327
REMARK  133  A    between atoms: _330  and  _332
REMARK  134  A    between atoms: _332  and  _333
REMARK  135  A    between atoms: _336  and  _338
REMARK  136  A    between atoms: _338  and  _339
REMARK  137  A    between atoms: _338  and  _341
REMARK  138  A    between atoms: _341  and  _342
REMARK  139  A    between atoms: _342  and  _343
REMARK  140  A    between atoms: _343  and  _344
REMARK  141  A    between atoms: _344  and  _345
REMARK  142  A    between atoms: _349  and  _351
REMARK  143  A    between atoms: _351  and  _352
REMARK  144  A    between atoms: _351  and  _354
REMARK  145  A    between atoms: _354  and  _355
REMARK  146  A    between atoms: _359  and  _360
REMARK  147  A    between atoms: _365  and  _367
REMARK  148  A    between atoms: _367  and  _368
REMARK  149  A    between atoms: _370  and  _372
REMARK  150  A    between atoms: _372  and  _373
REMARK  151  A    between atoms: _372  and  _375
REMARK  152  A    between atoms: _375  and  _376
REMARK  153  A    between atoms: _376  and  _377
REMARK  154  A    between atoms: _377  and  _378
REMARK  155  A    between atoms: _378  and  _379
REMARK  156  A    between atoms: _383  and  _385
REMARK  157  A    between atoms: _385  and  _386
REMARK  158  A    between atoms: _385  and  _388
REMARK  159  A    between atoms: _388  and  _389
REMARK  160  A    between atoms: _392  and  _394
REMARK  161  A    between atoms: _394  and  _395
REMARK  162  A    between atoms: _394  and  _397
REMARK  163  A    between atoms: _397  and  _398
REMARK  164  A    between atoms: _401  and  _403
REMARK  165  A    between atoms: _403  and  _404
REMARK  166  A    between atoms: _403  and  _406
REMARK  167  A    between atoms: _406  and  _407
REMARK  168  A    between atoms: _407  and  _408
REMARK  169  A    between atoms: _411  and  _413
REMARK  170  A    between atoms: _413  and  _414
REMARK  171  A    between atoms: _413  and  _416
REMARK  172  A    between atoms: _416  and  _417
REMARK  173  A    between atoms: _417  and  _418
REMARK  174  A    between atoms: _421  and  _423
REMARK  175  A    between atoms: _423  and  _424
REMARK  176  A    between atoms: _423  and  _426
REMARK  177  A    between atoms: _426  and  _427
REMARK  178  A    between atoms: _432  and  _434
REMARK  179  A    between atoms: _434  and  _435
REMARK  180  A    between atoms: _434  and  _437
REMARK  181  A    between atoms: _437  and  _438
REMARK                            x       y       z     vdW  Elec       q    Type
REMARK                         _______ _______ _______ _____ _____    ______ ____
ROOT
ATOM      1  O   HOH     1       0.714   9.155   4.173  0.00  0.00    +0.000 OA
ENDROOT
TORSDOF 0
REMARK  Name = ../refined-set-2016/3bex/3bex_pocket.pdb
REMARK  181 active torsions:
REMARK  status: ('A' for Active; 'I' for Inactive)
REMARK    1  A    between atoms: _1  and  _3
REMARK    2  A    between atoms: _3  and  _4
REMARK    3  A    between atoms: _3  and  _6
REMARK    4  A    between atoms: _6  and  _7
REMARK    5  A    between atoms: _10  and  _12
REMARK    6  A    between atoms: _12  and  _13
REMARK    7  A    between atoms: _12  and  _15
REMARK    8  A    between atoms: _18  and  _20
REMARK    9  A    between atoms: _20  and  _21
REMARK   10  A    between atoms: _23  and  _25
REMARK   11  A    between atoms: _25  and  _26
REMARK   12  A    between atoms: _25  and  _28
REMARK   13  A    between atoms: _28  and  _29
REMARK   14  A    between atoms: _34  and  _36
REMARK   15  A    between atoms: _36  and  _37
REMARK   16  A    between atoms: _36  and  _39
REMARK   17  A    between atoms: _39  and  _40
REMARK   18  A    between atoms: _43  and  _45
REMARK   19  A    between atoms: _45  and  _46
REMARK   20  A    between atoms: _45  and  _48
REMARK   21  A    between atoms: _48  and  _49
REMARK   22  A    between atoms: _51  and  _53
REMARK   23  A    between atoms: _53  and  _54
REMARK   24  A    between atoms: _53  and  _56
REMARK   25  A    between atoms: _59  and  _61
REMARK   26  A    between atoms: _61  and  _62
REMARK   27  A    between atoms: _61  and  _64
REMARK   28  A    between atoms: _68  and  _69
REMARK   29  A    between atoms: _74  and  _76
REMARK   30  A    between atoms: _76  and  _77
REMARK   31  A    between atoms: _76  and  _79
REMARK   32  A    between atoms: _82  and  _84
REMARK   33  A    between atoms: _84  and  _85
REMARK   34  A    between atoms: _84  and  _87
REMARK   35  A    between atoms: _87  and  _88
REMARK   36  A    between atoms: _94  and  _95
REMARK   37  A    between atoms: _100  and  _102
REMARK   38  A    between atoms: _102  and  _103
REMARK   39  A    between atoms: _102  and  _105
REMARK   40  A    between atoms: _105  and  _106
REMARK   41  A    between atoms: _108  and  _110
REMARK   42  A    between atoms: _110  and  _111
REMARK   43  A    between atoms: _110  and  _113
REMARK   44  A    between atoms: _113  and  _114
REMARK   45  A    between atoms: _114  and  _115
REMARK   46  A    between atoms: _118  and  _120
REMARK   47  A    between atoms: _120  and  _121
REMARK   48  A    between atoms: _120  and  _123
REMARK   49  A    between atoms: _126  and  _128
REMARK   50  A    between atoms: _128  and  _129
REMARK   51  A    between atoms: _131  and  _133
REMARK   52  A    between atoms: _133  and  _134
REMARK   53  A    between atoms: _137  and  _139
REMARK   54  A    between atoms: _139  and  _140
REMARK   55  A    between atoms: _139  and  _142
REMARK   56  A    between atoms: _142  and  _143
REMARK   57  A    between atoms: _146  and  _148
REMARK   58  A    between atoms: _148  and  _149
REMARK   59  A    between atoms: _148  and  _151
REMARK   60  A    between atoms: _151  and  _152
REMARK   61  A    between atoms: _152  and  _153
REMARK   62  A    between atoms: _153  and  _154
REMARK   63  A    between atoms: _163  and  _165
REMARK   64  A    between atoms: _165  and  _166
REMARK   65  A    between atoms: _165  and  _168
REMARK   66  A    between atoms: _171  and  _173
REMARK   67  A    between atoms: _173  and  _174
REMARK   68  A    between atoms: _173  and  _176
REMARK   69  A    between atoms: _176  and  _177
REMARK   70  A    between atoms: _182  and  _184
REMARK   71  A    between atoms: _184  and  _185
REMARK   72  A    between atoms: _184  and  _187
REMARK   73  A    between atoms: _187  and  _188
REMARK   74  A    between atoms: _191  and  _193
REMARK   75  A    between atoms: _193  and  _194
REMARK   76  A    between atoms: _196  and  _198
REMARK   77  A    between atoms: _198  and  _199
REMARK   78  A    between atoms: _198  and  _201
REMARK   79  A    between atoms: _201  and  _202
REMARK   80  A    between atoms: _205  and  _207
REMARK   81  A    between atoms: _207  and  _208
REMARK   82  A    between atoms: _211  and  _213
REMARK   83  A    between atoms: _213  and  _214
REMARK   84  A    between atoms: _213  and  _216
REMARK   85  A    between atoms: _216  and  _217
REMARK   86  A    between atoms: _220  and  _222
REMARK   87  A    between atoms: _222  and  _223
REMARK   88  A    between atoms: _222  and  _225
REMARK   89  A    between atoms: _225  and  _226
REMARK   90  A    between atoms: _229  and  _231
REMARK   91  A    between atoms: _231  and  _232
REMARK   92  A    between atoms: _231  and  _234
REMARK   93  A    between atoms: _237  and  _239
REMARK   94  A    between atoms: _239  and  _240
REMARK   95  A    between atoms: _239  and  _242
REMARK   96  A    between atoms: _242  and  _243
REMARK   97  A    between atoms: _246  and  _248
REMARK   98  A    between atoms: _248  and  _249
REMARK   99  A    between atoms: _248  and  _251
REMARK  100  A    between atoms: _251  and  _252
REMARK  101  A    between atoms: _257  and  _258
REMARK  102  A    between atoms: _260  and  _262
REMARK  103  A    between atoms: _262  and  _263
REMARK  104  A    between atoms: _265  and  _267
REMARK  105  A    between atoms: _267  and  _268
REMARK  106  A    between atoms: _271  and  _273
REMARK  107  A    between atoms: _273  and  _274
REMARK  108  A    between atoms: _273  and  _276
REMARK  109  A    between atoms: _276  and  _277
REMARK  110  A    between atoms: _280  and  _282
REMARK  111  A    between atoms: _282  and  _283
REMARK  112  A    between atoms: _282  and  _285
REMARK  113  A    between atoms: _285  and  _286
REMARK  114  A    between atoms: _289  and  _291
REMARK  115  A    between atoms: _291  and  _292
REMARK  116  A    between atoms: _291  and  _294
REMARK  117  A    between atoms: _294  and  _295
REMARK  118  A    between atoms: _295  and  _296
REMARK  119  A    between atoms: _298  and  _300
REMARK  120  A    between atoms: _300  and  _301
REMARK  121  A    between atoms: _300  and  _303
REMARK  122  A    between atoms: _303  and  _304
REMARK  123  A    between atoms: _307  and  _309
REMARK  124  A    between atoms: _309  and  _310
REMARK  125  A    between atoms: _309  and  _312
REMARK  126  A    between atoms: _312  and  _313
REMARK  127  A    between atoms: _316  and  _318
REMARK  128  A    between atoms: _318  and  _319
REMARK  129  A    between atoms: _321  and  _323
REMARK  130  A    between atoms: _323  and  _324
REMARK  131  A    between atoms: _323  and  _326
REMARK  132  A    between atoms: _326  and  _327
REMARK  133  A    between atoms: _330  and  _332
REMARK  134  A    between atoms: _332  and  _333
REMARK  135  A    between atoms: _336  and  _338
REMARK  136  A    between atoms: _338  and  _339
REMARK  137  A    between atoms: _338  and  _341
REMARK  138  A    between atoms: _341  and  _342
REMARK  139  A    between atoms: _342  and  _343
REMARK  140  A    between atoms: _343  and  _344
REMARK  141  A    between atoms: _344  and  _345
REMARK  142  A    between atoms: _349  and  _351
REMARK  143  A    between atoms: _351  and  _352
REMARK  144  A    between atoms: _351  and  _354
REMARK  145  A    between atoms: _354  and  _355
REMARK  146  A    between atoms: _359  and  _360
REMARK  147  A    between atoms: _365  and  _367
REMARK  148  A    between atoms: _367  and  _368
REMARK  149  A    between atoms: _370  and  _372
REMARK  150  A    between atoms: _372  and  _373
REMARK  151  A    between atoms: _372  and  _375
REMARK  152  A    between atoms: _375  and  _376
REMARK  153  A    between atoms: _376  and  _377
REMARK  154  A    between atoms: _377  and  _378
REMARK  155  A    between atoms: _378  and  _379
REMARK  156  A    between atoms: _383  and  _385
REMARK  157  A    between atoms: _385  and  _386
REMARK  158  A    between atoms: _385  and  _388
REMARK  159  A    between atoms: _388  and  _389
REMARK  160  A    between atoms: _392  and  _394
REMARK  161  A    between atoms: _394  and  _395
REMARK  162  A    between atoms: _394  and  _397
REMARK  163  A    between atoms: _397  and  _398
REMARK  164  A    between atoms: _401  and  _403
REMARK  165  A    between atoms: _403  and  _404
REMARK  166  A    between atoms: _403  and  _406
REMARK  167  A    between atoms: _406  and  _407
REMARK  168  A    between atoms: _407  and  _408
REMARK  169  A    between atoms: _411  and  _413
REMARK  170  A    between atoms: _413  and  _414
REMARK  171  A    between atoms: _413  and  _416
REMARK  172  A    between atoms: _416  and  _417
REMARK  173  A    between atoms: _417  and  _418
REMARK  174  A    between atoms: _421  and  _423
REMARK  175  A    between atoms: _423  and  _424
REMARK  176  A    between atoms: _423  and  _426
REMARK  177  A    between atoms: _426  and  _427
REMARK  178  A    between atoms: _432  and  _434
REMARK  179  A    between atoms: _434  and  _435
REMARK  180  A    between atoms: _434  and  _437
REMARK  181  A    between atoms: _437  and  _438
REMARK                            x       y       z     vdW  Elec       q    Type
REMARK                         _______ _______ _______ _____ _____    ______ ____
ROOT
ATOM      1  O   HOH     1       3.811  19.600  23.394  0.00  0.00    +0.000 OA
ENDROOT
TORSDOF 0
REMARK  Name = ../refined-set-2016/3bex/3bex_pocket.pdb
REMARK  181 active torsions:
REMARK  status: ('A' for Active; 'I' for Inactive)
REMARK    1  A    between atoms: _1  and  _3
REMARK    2  A    between atoms: _3  and  _4
REMARK    3  A    between atoms: _3  and  _6
REMARK    4  A    between atoms: _6  and  _7
REMARK    5  A    between atoms: _10  and  _12
REMARK    6  A    between atoms: _12  and  _13
REMARK    7  A    between atoms: _12  and  _15
REMARK    8  A    between atoms: _18  and  _20
REMARK    9  A    between atoms: _20  and  _21
REMARK   10  A    between atoms: _23  and  _25
REMARK   11  A    between atoms: _25  and  _26
REMARK   12  A    between atoms: _25  and  _28
REMARK   13  A    between atoms: _28  and  _29
REMARK   14  A    between atoms: _34  and  _36
REMARK   15  A    between atoms: _36  and  _37
REMARK   16  A    between atoms: _36  and  _39
REMARK   17  A    between atoms: _39  and  _40
REMARK   18  A    between atoms: _43  and  _45
REMARK   19  A    between atoms: _45  and  _46
REMARK   20  A    between atoms: _45  and  _48
REMARK   21  A    between atoms: _48  and  _49
REMARK   22  A    between atoms: _51  and  _53
REMARK   23  A    between atoms: _53  and  _54
REMARK   24  A    between atoms: _53  and  _56
REMARK   25  A    between atoms: _59  and  _61
REMARK   26  A    between atoms: _61  and  _62
REMARK   27  A    between atoms: _61  and  _64
REMARK   28  A    between atoms: _68  and  _69
REMARK   29  A    between atoms: _74  and  _76
REMARK   30  A    between atoms: _76  and  _77
REMARK   31  A    between atoms: _76  and  _79
REMARK   32  A    between atoms: _82  and  _84
REMARK   33  A    between atoms: _84  and  _85
REMARK   34  A    between atoms: _84  and  _87
REMARK   35  A    between atoms: _87  and  _88
REMARK   36  A    between atoms: _94  and  _95
REMARK   37  A    between atoms: _100  and  _102
REMARK   38  A    between atoms: _102  and  _103
REMARK   39  A    between atoms: _102  and  _105
REMARK   40  A    between atoms: _105  and  _106
REMARK   41  A    between atoms: _108  and  _110
REMARK   42  A    between atoms: _110  and  _111
REMARK   43  A    between atoms: _110  and  _113
REMARK   44  A    between atoms: _113  and  _114
REMARK   45  A    between atoms: _114  and  _115
REMARK   46  A    between atoms: _118  and  _120
REMARK   47  A    between atoms: _120  and  _121
REMARK   48  A    between atoms: _120  and  _123
REMARK   49  A    between atoms: _126  and  _128
REMARK   50  A    between atoms: _128  and  _129
REMARK   51  A    between atoms: _131  and  _133
REMARK   52  A    between atoms: _133  and  _134
REMARK   53  A    between atoms: _137  and  _139
REMARK   54  A    between atoms: _139  and  _140
REMARK   55  A    between atoms: _139  and  _142
REMARK   56  A    between atoms: _142  and  _143
REMARK   57  A    between atoms: _146  and  _148
REMARK   58  A    between atoms: _148  and  _149
REMARK   59  A    between atoms: _148  and  _151
REMARK   60  A    between atoms: _151  and  _152
REMARK   61  A    between atoms: _152  and  _153
REMARK   62  A    between atoms: _153  and  _154
REMARK   63  A    between atoms: _163  and  _165
REMARK   64  A    between atoms: _165  and  _166
REMARK   65  A    between atoms: _165  and  _168
REMARK   66  A    between atoms: _171  and  _173
REMARK   67  A    between atoms: _173  and  _174
REMARK   68  A    between atoms: _173  and  _176
REMARK   69  A    between atoms: _176  and  _177
REMARK   70  A    between atoms: _182  and  _184
REMARK   71  A    between atoms: _184  and  _185
REMARK   72  A    between atoms: _184  and  _187
REMARK   73  A    between atoms: _187  and  _188
REMARK   74  A    between atoms: _191  and  _193
REMARK   75  A    between atoms: _193  and  _194
REMARK   76  A    between atoms: _196  and  _198
REMARK   77  A    between atoms: _198  and  _199
REMARK   78  A    between atoms: _198  and  _201
REMARK   79  A    between atoms: _201  and  _202
REMARK   80  A    between atoms: _205  and  _207
REMARK   81  A    between atoms: _207  and  _208
REMARK   82  A    between atoms: _211  and  _213
REMARK   83  A    between atoms: _213  and  _214
REMARK   84  A    between atoms: _213  and  _216
REMARK   85  A    between atoms: _216  and  _217
REMARK   86  A    between atoms: _220  and  _222
REMARK   87  A    between atoms: _222  and  _223
REMARK   88  A    between atoms: _222  and  _225
REMARK   89  A    between atoms: _225  and  _226
REMARK   90  A    between atoms: _229  and  _231
REMARK   91  A    between atoms: _231  and  _232
REMARK   92  A    between atoms: _231  and  _234
REMARK   93  A    between atoms: _237  and  _239
REMARK   94  A    between atoms: _239  and  _240
REMARK   95  A    between atoms: _239  and  _242
REMARK   96  A    between atoms: _242  and  _243
REMARK   97  A    between atoms: _246  and  _248
REMARK   98  A    between atoms: _248  and  _249
REMARK   99  A    between atoms: _248  and  _251
REMARK  100  A    between atoms: _251  and  _252
REMARK  101  A    between atoms: _257  and  _258
REMARK  102  A    between atoms: _260  and  _262
REMARK  103  A    between atoms: _262  and  _263
REMARK  104  A    between atoms: _265  and  _267
REMARK  105  A    between atoms: _267  and  _268
REMARK  106  A    between atoms: _271  and  _273
REMARK  107  A    between atoms: _273  and  _274
REMARK  108  A    between atoms: _273  and  _276
REMARK  109  A    between atoms: _276  and  _277
REMARK  110  A    between atoms: _280  and  _282
REMARK  111  A    between atoms: _282  and  _283
REMARK  112  A    between atoms: _282  and  _285
REMARK  113  A    between atoms: _285  and  _286
REMARK  114  A    between atoms: _289  and  _291
REMARK  115  A    between atoms: _291  and  _292
REMARK  116  A    between atoms: _291  and  _294
REMARK  117  A    between atoms: _294  and  _295
REMARK  118  A    between atoms: _295  and  _296
REMARK  119  A    between atoms: _298  and  _300
REMARK  120  A    between atoms: _300  and  _301
REMARK  121  A    between atoms: _300  and  _303
REMARK  122  A    between atoms: _303  and  _304
REMARK  123  A    between atoms: _307  and  _309
REMARK  124  A    between atoms: _309  and  _310
REMARK  125  A    between atoms: _309  and  _312
REMARK  126  A    between atoms: _312  and  _313
REMARK  127  A    between atoms: _316  and  _318
REMARK  128  A    between atoms: _318  and  _319
REMARK  129  A    between atoms: _321  and  _323
REMARK  130  A    between atoms: _323  and  _324
REMARK  131  A    between atoms: _323  and  _326
REMARK  132  A    between atoms: _326  and  _327
REMARK  133  A    between atoms: _330  and  _332
REMARK  134  A    between atoms: _332  and  _333
REMARK  135  A    between atoms: _336  and  _338
REMARK  136  A    between atoms: _338  and  _339
REMARK  137  A    between atoms: _338  and  _341
REMARK  138  A    between atoms: _341  and  _342
REMARK  139  A    between atoms: _342  and  _343
REMARK  140  A    between atoms: _343  and  _344
REMARK  141  A    between atoms: _344  and  _345
REMARK  142  A    between atoms: _349  and  _351
REMARK  143  A    between atoms: _351  and  _352
REMARK  144  A    between atoms: _351  and  _354
REMARK  145  A    between atoms: _354  and  _355
REMARK  146  A    between atoms: _359  and  _360
REMARK  147  A    between atoms: _365  and  _367
REMARK  148  A    between atoms: _367  and  _368
REMARK  149  A    between atoms: _370  and  _372
REMARK  150  A    between atoms: _372  and  _373
REMARK  151  A    between atoms: _372  and  _375
REMARK  152  A    between atoms: _375  and  _376
REMARK  153  A    between atoms: _376  and  _377
REMARK  154  A    between atoms: _377  and  _378
REMARK  155  A    between atoms: _378  and  _379
REMARK  156  A    between atoms: _383  and  _385
REMARK  157  A    between atoms: _385  and  _386
REMARK  158  A    between atoms: _385  and  _388
REMARK  159  A    between atoms: _388  and  _389
REMARK  160  A    between atoms: _392  and  _394
REMARK  161  A    between atoms: _394  and  _395
REMARK  162  A    between atoms: _394  and  _397
REMARK  163  A    between atoms: _397  and  _398
REMARK  164  A    between atoms: _401  and  _403
REMARK  165  A    between atoms: _403  and  _404
REMARK  166  A    between atoms: _403  and  _406
REMARK  167  A    between atoms: _406  and  _407
REMARK  168  A    between atoms: _407  and  _408
REMARK  169  A    between atoms: _411  and  _413
REMARK  170  A    between atoms: _413  and  _414
REMARK  171  A    between atoms: _413  and  _416
REMARK  172  A    between atoms: _416  and  _417
REMARK  173  A    between atoms: _417  and  _418
REMARK  174  A    between atoms: _421  and  _423
REMARK  175  A    between atoms: _423  and  _424
REMARK  176  A    between atoms: _423  and  _426
REMARK  177  A    between atoms: _426  and  _427
REMARK  178  A    between atoms: _432  and  _434
REMARK  179  A    between atoms: _434  and  _435
REMARK  180  A    between atoms: _434  and  _437
REMARK  181  A    between atoms: _437  and  _438
REMARK                            x       y       z     vdW  Elec       q    Type
REMARK                         _______ _______ _______ _____ _____    ______ ____
ROOT
ATOM      1  O   HOH     1      -4.291   7.279  15.091  0.00  0.00    +0.000 OA
ENDROOT
TORSDOF 0
REMARK  Name = ../refined-set-2016/3bex/3bex_pocket.pdb
REMARK  181 active torsions:
REMARK  status: ('A' for Active; 'I' for Inactive)
REMARK    1  A    between atoms: _1  and  _3
REMARK    2  A    between atoms: _3  and  _4
REMARK    3  A    between atoms: _3  and  _6
REMARK    4  A    between atoms: _6  and  _7
REMARK    5  A    between atoms: _10  and  _12
REMARK    6  A    between atoms: _12  and  _13
REMARK    7  A    between atoms: _12  and  _15
REMARK    8  A    between atoms: _18  and  _20
REMARK    9  A    between atoms: _20  and  _21
REMARK   10  A    between atoms: _23  and  _25
REMARK   11  A    between atoms: _25  and  _26
REMARK   12  A    between atoms: _25  and  _28
REMARK   13  A    between atoms: _28  and  _29
REMARK   14  A    between atoms: _34  and  _36
REMARK   15  A    between atoms: _36  and  _37
REMARK   16  A    between atoms: _36  and  _39
REMARK   17  A    between atoms: _39  and  _40
REMARK   18  A    between atoms: _43  and  _45
REMARK   19  A    between atoms: _45  and  _46
REMARK   20  A    between atoms: _45  and  _48
REMARK   21  A    between atoms: _48  and  _49
REMARK   22  A    between atoms: _51  and  _53
REMARK   23  A    between atoms: _53  and  _54
REMARK   24  A    between atoms: _53  and  _56
REMARK   25  A    between atoms: _59  and  _61
REMARK   26  A    between atoms: _61  and  _62
REMARK   27  A    between atoms: _61  and  _64
REMARK   28  A    between atoms: _68  and  _69
REMARK   29  A    between atoms: _74  and  _76
REMARK   30  A    between atoms: _76  and  _77
REMARK   31  A    between atoms: _76  and  _79
REMARK   32  A    between atoms: _82  and  _84
REMARK   33  A    between atoms: _84  and  _85
REMARK   34  A    between atoms: _84  and  _87
REMARK   35  A    between atoms: _87  and  _88
REMARK   36  A    between atoms: _94  and  _95
REMARK   37  A    between atoms: _100  and  _102
REMARK   38  A    between atoms: _102  and  _103
REMARK   39  A    between atoms: _102  and  _105
REMARK   40  A    between atoms: _105  and  _106
REMARK   41  A    between atoms: _108  and  _110
REMARK   42  A    between atoms: _110  and  _111
REMARK   43  A    between atoms: _110  and  _113
REMARK   44  A    between atoms: _113  and  _114
REMARK   45  A    between atoms: _114  and  _115
REMARK   46  A    between atoms: _118  and  _120
REMARK   47  A    between atoms: _120  and  _121
REMARK   48  A    between atoms: _120  and  _123
REMARK   49  A    between atoms: _126  and  _128
REMARK   50  A    between atoms: _128  and  _129
REMARK   51  A    between atoms: _131  and  _133
REMARK   52  A    between atoms: _133  and  _134
REMARK   53  A    between atoms: _137  and  _139
REMARK   54  A    between atoms: _139  and  _140
REMARK   55  A    between atoms: _139  and  _142
REMARK   56  A    between atoms: _142  and  _143
REMARK   57  A    between atoms: _146  and  _148
REMARK   58  A    between atoms: _148  and  _149
REMARK   59  A    between atoms: _148  and  _151
REMARK   60  A    between atoms: _151  and  _152
REMARK   61  A    between atoms: _152  and  _153
REMARK   62  A    between atoms: _153  and  _154
REMARK   63  A    between atoms: _163  and  _165
REMARK   64  A    between atoms: _165  and  _166
REMARK   65  A    between atoms: _165  and  _168
REMARK   66  A    between atoms: _171  and  _173
REMARK   67  A    between atoms: _173  and  _174
REMARK   68  A    between atoms: _173  and  _176
REMARK   69  A    between atoms: _176  and  _177
REMARK   70  A    between atoms: _182  and  _184
REMARK   71  A    between atoms: _184  and  _185
REMARK   72  A    between atoms: _184  and  _187
REMARK   73  A    between atoms: _187  and  _188
REMARK   74  A    between atoms: _191  and  _193
REMARK   75  A    between atoms: _193  and  _194
REMARK   76  A    between atoms: _196  and  _198
REMARK   77  A    between atoms: _198  and  _199
REMARK   78  A    between atoms: _198  and  _201
REMARK   79  A    between atoms: _201  and  _202
REMARK   80  A    between atoms: _205  and  _207
REMARK   81  A    between atoms: _207  and  _208
REMARK   82  A    between atoms: _211  and  _213
REMARK   83  A    between atoms: _213  and  _214
REMARK   84  A    between atoms: _213  and  _216
REMARK   85  A    between atoms: _216  and  _217
REMARK   86  A    between atoms: _220  and  _222
REMARK   87  A    between atoms: _222  and  _223
REMARK   88  A    between atoms: _222  and  _225
REMARK   89  A    between atoms: _225  and  _226
REMARK   90  A    between atoms: _229  and  _231
REMARK   91  A    between atoms: _231  and  _232
REMARK   92  A    between atoms: _231  and  _234
REMARK   93  A    between atoms: _237  and  _239
REMARK   94  A    between atoms: _239  and  _240
REMARK   95  A    between atoms: _239  and  _242
REMARK   96  A    between atoms: _242  and  _243
REMARK   97  A    between atoms: _246  and  _248
REMARK   98  A    between atoms: _248  and  _249
REMARK   99  A    between atoms: _248  and  _251
REMARK  100  A    between atoms: _251  and  _252
REMARK  101  A    between atoms: _257  and  _258
REMARK  102  A    between atoms: _260  and  _262
REMARK  103  A    between atoms: _262  and  _263
REMARK  104  A    between atoms: _265  and  _267
REMARK  105  A    between atoms: _267  and  _268
REMARK  106  A    between atoms: _271  and  _273
REMARK  107  A    between atoms: _273  and  _274
REMARK  108  A    between atoms: _273  and  _276
REMARK  109  A    between atoms: _276  and  _277
REMARK  110  A    between atoms: _280  and  _282
REMARK  111  A    between atoms: _282  and  _283
REMARK  112  A    between atoms: _282  and  _285
REMARK  113  A    between atoms: _285  and  _286
REMARK  114  A    between atoms: _289  and  _291
REMARK  115  A    between atoms: _291  and  _292
REMARK  116  A    between atoms: _291  and  _294
REMARK  117  A    between atoms: _294  and  _295
REMARK  118  A    between atoms: _295  and  _296
REMARK  119  A    between atoms: _298  and  _300
REMARK  120  A    between atoms: _300  and  _301
REMARK  121  A    between atoms: _300  and  _303
REMARK  122  A    between atoms: _303  and  _304
REMARK  123  A    between atoms: _307  and  _309
REMARK  124  A    between atoms: _309  and  _310
REMARK  125  A    between atoms: _309  and  _312
REMARK  126  A    between atoms: _312  and  _313
REMARK  127  A    between atoms: _316  and  _318
REMARK  128  A    between atoms: _318  and  _319
REMARK  129  A    between atoms: _321  and  _323
REMARK  130  A    between atoms: _323  and  _324
REMARK  131  A    between atoms: _323  and  _326
REMARK  132  A    between atoms: _326  and  _327
REMARK  133  A    between atoms: _330  and  _332
REMARK  134  A    between atoms: _332  and  _333
REMARK  135  A    between atoms: _336  and  _338
REMARK  136  A    between atoms: _338  and  _339
REMARK  137  A    between atoms: _338  and  _341
REMARK  138  A    between atoms: _341  and  _342
REMARK  139  A    between atoms: _342  and  _343
REMARK  140  A    between atoms: _343  and  _344
REMARK  141  A    between atoms: _344  and  _345
REMARK  142  A    between atoms: _349  and  _351
REMARK  143  A    between atoms: _351  and  _352
REMARK  144  A    between atoms: _351  and  _354
REMARK  145  A    between atoms: _354  and  _355
REMARK  146  A    between atoms: _359  and  _360
REMARK  147  A    between atoms: _365  and  _367
REMARK  148  A    between atoms: _367  and  _368
REMARK  149  A    between atoms: _370  and  _372
REMARK  150  A    between atoms: _372  and  _373
REMARK  151  A    between atoms: _372  and  _375
REMARK  152  A    between atoms: _375  and  _376
REMARK  153  A    between atoms: _376  and  _377
REMARK  154  A    between atoms: _377  and  _378
REMARK  155  A    between atoms: _378  and  _379
REMARK  156  A    between atoms: _383  and  _385
REMARK  157  A    between atoms: _385  and  _386
REMARK  158  A    between atoms: _385  and  _388
REMARK  159  A    between atoms: _388  and  _389
REMARK  160  A    between atoms: _392  and  _394
REMARK  161  A    between atoms: _394  and  _395
REMARK  162  A    between atoms: _394  and  _397
REMARK  163  A    between atoms: _397  and  _398
REMARK  164  A    between atoms: _401  and  _403
REMARK  165  A    between atoms: _403  and  _404
REMARK  166  A    between atoms: _403  and  _406
REMARK  167  A    between atoms: _406  and  _407
REMARK  168  A    between atoms: _407  and  _408
REMARK  169  A    between atoms: _411  and  _413
REMARK  170  A    between atoms: _413  and  _414
REMARK  171  A    between atoms: _413  and  _416
REMARK  172  A    between atoms: _416  and  _417
REMARK  173  A    between atoms: _417  and  _418
REMARK  174  A    between atoms: _421  and  _423
REMARK  175  A    between atoms: _423  and  _424
REMARK  176  A    between atoms: _423  and  _426
REMARK  177  A    between atoms: _426  and  _427
REMARK  178  A    between atoms: _432  and  _434
REMARK  179  A    between atoms: _434  and  _435
REMARK  180  A    between atoms: _434  and  _437
REMARK  181  A    between atoms: _437  and  _438
REMARK                            x       y       z     vdW  Elec       q    Type
REMARK                         _______ _______ _______ _____ _____    ______ ____
ROOT
ATOM      1  O   HOH     1       3.149  19.024  20.954  0.00  0.00    +0.000 OA
ENDROOT
TORSDOF 0
REMARK  Name = ../refined-set-2016/3bex/3bex_pocket.pdb
REMARK  181 active torsions:
REMARK  status: ('A' for Active; 'I' for Inactive)
REMARK    1  A    between atoms: _1  and  _3
REMARK    2  A    between atoms: _3  and  _4
REMARK    3  A    between atoms: _3  and  _6
REMARK    4  A    between atoms: _6  and  _7
REMARK    5  A    between atoms: _10  and  _12
REMARK    6  A    between atoms: _12  and  _13
REMARK    7  A    between atoms: _12  and  _15
REMARK    8  A    between atoms: _18  and  _20
REMARK    9  A    between atoms: _20  and  _21
REMARK   10  A    between atoms: _23  and  _25
REMARK   11  A    between atoms: _25  and  _26
REMARK   12  A    between atoms: _25  and  _28
REMARK   13  A    between atoms: _28  and  _29
REMARK   14  A    between atoms: _34  and  _36
REMARK   15  A    between atoms: _36  and  _37
REMARK   16  A    between atoms: _36  and  _39
REMARK   17  A    between atoms: _39  and  _40
REMARK   18  A    between atoms: _43  and  _45
REMARK   19  A    between atoms: _45  and  _46
REMARK   20  A    between atoms: _45  and  _48
REMARK   21  A    between atoms: _48  and  _49
REMARK   22  A    between atoms: _51  and  _53
REMARK   23  A    between atoms: _53  and  _54
REMARK   24  A    between atoms: _53  and  _56
REMARK   25  A    between atoms: _59  and  _61
REMARK   26  A    between atoms: _61  and  _62
REMARK   27  A    between atoms: _61  and  _64
REMARK   28  A    between atoms: _68  and  _69
REMARK   29  A    between atoms: _74  and  _76
REMARK   30  A    between atoms: _76  and  _77
REMARK   31  A    between atoms: _76  and  _79
REMARK   32  A    between atoms: _82  and  _84
REMARK   33  A    between atoms: _84  and  _85
REMARK   34  A    between atoms: _84  and  _87
REMARK   35  A    between atoms: _87  and  _88
REMARK   36  A    between atoms: _94  and  _95
REMARK   37  A    between atoms: _100  and  _102
REMARK   38  A    between atoms: _102  and  _103
REMARK   39  A    between atoms: _102  and  _105
REMARK   40  A    between atoms: _105  and  _106
REMARK   41  A    between atoms: _108  and  _110
REMARK   42  A    between atoms: _110  and  _111
REMARK   43  A    between atoms: _110  and  _113
REMARK   44  A    between atoms: _113  and  _114
REMARK   45  A    between atoms: _114  and  _115
REMARK   46  A    between atoms: _118  and  _120
REMARK   47  A    between atoms: _120  and  _121
REMARK   48  A    between atoms: _120  and  _123
REMARK   49  A    between atoms: _126  and  _128
REMARK   50  A    between atoms: _128  and  _129
REMARK   51  A    between atoms: _131  and  _133
REMARK   52  A    between atoms: _133  and  _134
REMARK   53  A    between atoms: _137  and  _139
REMARK   54  A    between atoms: _139  and  _140
REMARK   55  A    between atoms: _139  and  _142
REMARK   56  A    between atoms: _142  and  _143
REMARK   57  A    between atoms: _146  and  _148
REMARK   58  A    between atoms: _148  and  _149
REMARK   59  A    between atoms: _148  and  _151
REMARK   60  A    between atoms: _151  and  _152
REMARK   61  A    between atoms: _152  and  _153
REMARK   62  A    between atoms: _153  and  _154
REMARK   63  A    between atoms: _163  and  _165
REMARK   64  A    between atoms: _165  and  _166
REMARK   65  A    between atoms: _165  and  _168
REMARK   66  A    between atoms: _171  and  _173
REMARK   67  A    between atoms: _173  and  _174
REMARK   68  A    between atoms: _173  and  _176
REMARK   69  A    between atoms: _176  and  _177
REMARK   70  A    between atoms: _182  and  _184
REMARK   71  A    between atoms: _184  and  _185
REMARK   72  A    between atoms: _184  and  _187
REMARK   73  A    between atoms: _187  and  _188
REMARK   74  A    between atoms: _191  and  _193
REMARK   75  A    between atoms: _193  and  _194
REMARK   76  A    between atoms: _196  and  _198
REMARK   77  A    between atoms: _198  and  _199
REMARK   78  A    between atoms: _198  and  _201
REMARK   79  A    between atoms: _201  and  _202
REMARK   80  A    between atoms: _205  and  _207
REMARK   81  A    between atoms: _207  and  _208
REMARK   82  A    between atoms: _211  and  _213
REMARK   83  A    between atoms: _213  and  _214
REMARK   84  A    between atoms: _213  and  _216
REMARK   85  A    between atoms: _216  and  _217
REMARK   86  A    between atoms: _220  and  _222
REMARK   87  A    between atoms: _222  and  _223
REMARK   88  A    between atoms: _222  and  _225
REMARK   89  A    between atoms: _225  and  _226
REMARK   90  A    between atoms: _229  and  _231
REMARK   91  A    between atoms: _231  and  _232
REMARK   92  A    between atoms: _231  and  _234
REMARK   93  A    between atoms: _237  and  _239
REMARK   94  A    between atoms: _239  and  _240
REMARK   95  A    between atoms: _239  and  _242
REMARK   96  A    between atoms: _242  and  _243
REMARK   97  A    between atoms: _246  and  _248
REMARK   98  A    between atoms: _248  and  _249
REMARK   99  A    between atoms: _248  and  _251
REMARK  100  A    between atoms: _251  and  _252
REMARK  101  A    between atoms: _257  and  _258
REMARK  102  A    between atoms: _260  and  _262
REMARK  103  A    between atoms: _262  and  _263
REMARK  104  A    between atoms: _265  and  _267
REMARK  105  A    between atoms: _267  and  _268
REMARK  106  A    between atoms: _271  and  _273
REMARK  107  A    between atoms: _273  and  _274
REMARK  108  A    between atoms: _273  and  _276
REMARK  109  A    between atoms: _276  and  _277
REMARK  110  A    between atoms: _280  and  _282
REMARK  111  A    between atoms: _282  and  _283
REMARK  112  A    between atoms: _282  and  _285
REMARK  113  A    between atoms: _285  and  _286
REMARK  114  A    between atoms: _289  and  _291
REMARK  115  A    between atoms: _291  and  _292
REMARK  116  A    between atoms: _291  and  _294
REMARK  117  A    between atoms: _294  and  _295
REMARK  118  A    between atoms: _295  and  _296
REMARK  119  A    between atoms: _298  and  _300
REMARK  120  A    between atoms: _300  and  _301
REMARK  121  A    between atoms: _300  and  _303
REMARK  122  A    between atoms: _303  and  _304
REMARK  123  A    between atoms: _307  and  _309
REMARK  124  A    between atoms: _309  and  _310
REMARK  125  A    between atoms: _309  and  _312
REMARK  126  A    between atoms: _312  and  _313
REMARK  127  A    between atoms: _316  and  _318
REMARK  128  A    between atoms: _318  and  _319
REMARK  129  A    between atoms: _321  and  _323
REMARK  130  A    between atoms: _323  and  _324
REMARK  131  A    between atoms: _323  and  _326
REMARK  132  A    between atoms: _326  and  _327
REMARK  133  A    between atoms: _330  and  _332
REMARK  134  A    between atoms: _332  and  _333
REMARK  135  A    between atoms: _336  and  _338
REMARK  136  A    between atoms: _338  and  _339
REMARK  137  A    between atoms: _338  and  _341
REMARK  138  A    between atoms: _341  and  _342
REMARK  139  A    between atoms: _342  and  _343
REMARK  140  A    between atoms: _343  and  _344
REMARK  141  A    between atoms: _344  and  _345
REMARK  142  A    between atoms: _349  and  _351
REMARK  143  A    between atoms: _351  and  _352
REMARK  144  A    between atoms: _351  and  _354
REMARK  145  A    between atoms: _354  and  _355
REMARK  146  A    between atoms: _359  and  _360
REMARK  147  A    between atoms: _365  and  _367
REMARK  148  A    between atoms: _367  and  _368
REMARK  149  A    between atoms: _370  and  _372
REMARK  150  A    between atoms: _372  and  _373
REMARK  151  A    between atoms: _372  and  _375
REMARK  152  A    between atoms: _375  and  _376
REMARK  153  A    between atoms: _376  and  _377
REMARK  154  A    between atoms: _377  and  _378
REMARK  155  A    between atoms: _378  and  _379
REMARK  156  A    between atoms: _383  and  _385
REMARK  157  A    between atoms: _385  and  _386
REMARK  158  A    between atoms: _385  and  _388
REMARK  159  A    between atoms: _388  and  _389
REMARK  160  A    between atoms: _392  and  _394
REMARK  161  A    between atoms: _394  and  _395
REMARK  162  A    between atoms: _394  and  _397
REMARK  163  A    between atoms: _397  and  _398
REMARK  164  A    between atoms: _401  and  _403
REMARK  165  A    between atoms: _403  and  _404
REMARK  166  A    between atoms: _403  and  _406
REMARK  167  A    between atoms: _406  and  _407
REMARK  168  A    between atoms: _407  and  _408
REMARK  169  A    between atoms: _411  and  _413
REMARK  170  A    between atoms: _413  and  _414
REMARK  171  A    between atoms: _413  and  _416
REMARK  172  A    between atoms: _416  and  _417
REMARK  173  A    between atoms: _417  and  _418
REMARK  174  A    between atoms: _421  and  _423
REMARK  175  A    between atoms: _423  and  _424
REMARK  176  A    between atoms: _423  and  _426
REMARK  177  A    between atoms: _426  and  _427
REMARK  178  A    between atoms: _432  and  _434
REMARK  179  A    between atoms: _434  and  _435
REMARK  180  A    between atoms: _434  and  _437
REMARK  181  A    between atoms: _437  and  _438
REMARK                            x       y       z     vdW  Elec       q    Type
REMARK                         _______ _______ _______ _____ _____    ______ ____
ROOT
ATOM      1  O   HOH     1      -5.052   9.406  11.000  0.00  0.00    +0.000 OA
ENDROOT
TORSDOF 0
REMARK  Name = ../refined-set-2016/3bex/3bex_pocket.pdb
REMARK  181 active torsions:
REMARK  status: ('A' for Active; 'I' for Inactive)
REMARK    1  A    between atoms: _1  and  _3
REMARK    2  A    between atoms: _3  and  _4
REMARK    3  A    between atoms: _3  and  _6
REMARK    4  A    between atoms: _6  and  _7
REMARK    5  A    between atoms: _10  and  _12
REMARK    6  A    between atoms: _12  and  _13
REMARK    7  A    between atoms: _12  and  _15
REMARK    8  A    between atoms: _18  and  _20
REMARK    9  A    between atoms: _20  and  _21
REMARK   10  A    between atoms: _23  and  _25
REMARK   11  A    between atoms: _25  and  _26
REMARK   12  A    between atoms: _25  and  _28
REMARK   13  A    between atoms: _28  and  _29
REMARK   14  A    between atoms: _34  and  _36
REMARK   15  A    between atoms: _36  and  _37
REMARK   16  A    between atoms: _36  and  _39
REMARK   17  A    between atoms: _39  and  _40
REMARK   18  A    between atoms: _43  and  _45
REMARK   19  A    between atoms: _45  and  _46
REMARK   20  A    between atoms: _45  and  _48
REMARK   21  A    between atoms: _48  and  _49
REMARK   22  A    between atoms: _51  and  _53
REMARK   23  A    between atoms: _53  and  _54
REMARK   24  A    between atoms: _53  and  _56
REMARK   25  A    between atoms: _59  and  _61
REMARK   26  A    between atoms: _61  and  _62
REMARK   27  A    between atoms: _61  and  _64
REMARK   28  A    between atoms: _68  and  _69
REMARK   29  A    between atoms: _74  and  _76
REMARK   30  A    between atoms: _76  and  _77
REMARK   31  A    between atoms: _76  and  _79
REMARK   32  A    between atoms: _82  and  _84
REMARK   33  A    between atoms: _84  and  _85
REMARK   34  A    between atoms: _84  and  _87
REMARK   35  A    between atoms: _87  and  _88
REMARK   36  A    between atoms: _94  and  _95
REMARK   37  A    between atoms: _100  and  _102
REMARK   38  A    between atoms: _102  and  _103
REMARK   39  A    between atoms: _102  and  _105
REMARK   40  A    between atoms: _105  and  _106
REMARK   41  A    between atoms: _108  and  _110
REMARK   42  A    between atoms: _110  and  _111
REMARK   43  A    between atoms: _110  and  _113
REMARK   44  A    between atoms: _113  and  _114
REMARK   45  A    between atoms: _114  and  _115
REMARK   46  A    between atoms: _118  and  _120
REMARK   47  A    between atoms: _120  and  _121
REMARK   48  A    between atoms: _120  and  _123
REMARK   49  A    between atoms: _126  and  _128
REMARK   50  A    between atoms: _128  and  _129
REMARK   51  A    between atoms: _131  and  _133
REMARK   52  A    between atoms: _133  and  _134
REMARK   53  A    between atoms: _137  and  _139
REMARK   54  A    between atoms: _139  and  _140
REMARK   55  A    between atoms: _139  and  _142
REMARK   56  A    between atoms: _142  and  _143
REMARK   57  A    between atoms: _146  and  _148
REMARK   58  A    between atoms: _148  and  _149
REMARK   59  A    between atoms: _148  and  _151
REMARK   60  A    between atoms: _151  and  _152
REMARK   61  A    between atoms: _152  and  _153
REMARK   62  A    between atoms: _153  and  _154
REMARK   63  A    between atoms: _163  and  _165
REMARK   64  A    between atoms: _165  and  _166
REMARK   65  A    between atoms: _165  and  _168
REMARK   66  A    between atoms: _171  and  _173
REMARK   67  A    between atoms: _173  and  _174
REMARK   68  A    between atoms: _173  and  _176
REMARK   69  A    between atoms: _176  and  _177
REMARK   70  A    between atoms: _182  and  _184
REMARK   71  A    between atoms: _184  and  _185
REMARK   72  A    between atoms: _184  and  _187
REMARK   73  A    between atoms: _187  and  _188
REMARK   74  A    between atoms: _191  and  _193
REMARK   75  A    between atoms: _193  and  _194
REMARK   76  A    between atoms: _196  and  _198
REMARK   77  A    between atoms: _198  and  _199
REMARK   78  A    between atoms: _198  and  _201
REMARK   79  A    between atoms: _201  and  _202
REMARK   80  A    between atoms: _205  and  _207
REMARK   81  A    between atoms: _207  and  _208
REMARK   82  A    between atoms: _211  and  _213
REMARK   83  A    between atoms: _213  and  _214
REMARK   84  A    between atoms: _213  and  _216
REMARK   85  A    between atoms: _216  and  _217
REMARK   86  A    between atoms: _220  and  _222
REMARK   87  A    between atoms: _222  and  _223
REMARK   88  A    between atoms: _222  and  _225
REMARK   89  A    between atoms: _225  and  _226
REMARK   90  A    between atoms: _229  and  _231
REMARK   91  A    between atoms: _231  and  _232
REMARK   92  A    between atoms: _231  and  _234
REMARK   93  A    between atoms: _237  and  _239
REMARK   94  A    between atoms: _239  and  _240
REMARK   95  A    between atoms: _239  and  _242
REMARK   96  A    between atoms: _242  and  _243
REMARK   97  A    between atoms: _246  and  _248
REMARK   98  A    between atoms: _248  and  _249
REMARK   99  A    between atoms: _248  and  _251
REMARK  100  A    between atoms: _251  and  _252
REMARK  101  A    between atoms: _257  and  _258
REMARK  102  A    between atoms: _260  and  _262
REMARK  103  A    between atoms: _262  and  _263
REMARK  104  A    between atoms: _265  and  _267
REMARK  105  A    between atoms: _267  and  _268
REMARK  106  A    between atoms: _271  and  _273
REMARK  107  A    between atoms: _273  and  _274
REMARK  108  A    between atoms: _273  and  _276
REMARK  109  A    between atoms: _276  and  _277
REMARK  110  A    between atoms: _280  and  _282
REMARK  111  A    between atoms: _282  and  _283
REMARK  112  A    between atoms: _282  and  _285
REMARK  113  A    between atoms: _285  and  _286
REMARK  114  A    between atoms: _289  and  _291
REMARK  115  A    between atoms: _291  and  _292
REMARK  116  A    between atoms: _291  and  _294
REMARK  117  A    between atoms: _294  and  _295
REMARK  118  A    between atoms: _295  and  _296
REMARK  119  A    between atoms: _298  and  _300
REMARK  120  A    between atoms: _300  and  _301
REMARK  121  A    between atoms: _300  and  _303
REMARK  122  A    between atoms: _303  and  _304
REMARK  123  A    between atoms: _307  and  _309
REMARK  124  A    between atoms: _309  and  _310
REMARK  125  A    between atoms: _309  and  _312
REMARK  126  A    between atoms: _312  and  _313
REMARK  127  A    between atoms: _316  and  _318
REMARK  128  A    between atoms: _318  and  _319
REMARK  129  A    between atoms: _321  and  _323
REMARK  130  A    between atoms: _323  and  _324
REMARK  131  A    between atoms: _323  and  _326
REMARK  132  A    between atoms: _326  and  _327
REMARK  133  A    between atoms: _330  and  _332
REMARK  134  A    between atoms: _332  and  _333
REMARK  135  A    between atoms: _336  and  _338
REMARK  136  A    between atoms: _338  and  _339
REMARK  137  A    between atoms: _338  and  _341
REMARK  138  A    between atoms: _341  and  _342
REMARK  139  A    between atoms: _342  and  _343
REMARK  140  A    between atoms: _343  and  _344
REMARK  141  A    between atoms: _344  and  _345
REMARK  142  A    between atoms: _349  and  _351
REMARK  143  A    between atoms: _351  and  _352
REMARK  144  A    between atoms: _351  and  _354
REMARK  145  A    between atoms: _354  and  _355
REMARK  146  A    between atoms: _359  and  _360
REMARK  147  A    between atoms: _365  and  _367
REMARK  148  A    between atoms: _367  and  _368
REMARK  149  A    between atoms: _370  and  _372
REMARK  150  A    between atoms: _372  and  _373
REMARK  151  A    between atoms: _372  and  _375
REMARK  152  A    between atoms: _375  and  _376
REMARK  153  A    between atoms: _376  and  _377
REMARK  154  A    between atoms: _377  and  _378
REMARK  155  A    between atoms: _378  and  _379
REMARK  156  A    between atoms: _383  and  _385
REMARK  157  A    between atoms: _385  and  _386
REMARK  158  A    between atoms: _385  and  _388
REMARK  159  A    between atoms: _388  and  _389
REMARK  160  A    between atoms: _392  and  _394
REMARK  161  A    between atoms: _394  and  _395
REMARK  162  A    between atoms: _394  and  _397
REMARK  163  A    between atoms: _397  and  _398
REMARK  164  A    between atoms: _401  and  _403
REMARK  165  A    between atoms: _403  and  _404
REMARK  166  A    between atoms: _403  and  _406
REMARK  167  A    between atoms: _406  and  _407
REMARK  168  A    between atoms: _407  and  _408
REMARK  169  A    between atoms: _411  and  _413
REMARK  170  A    between atoms: _413  and  _414
REMARK  171  A    between atoms: _413  and  _416
REMARK  172  A    between atoms: _416  and  _417
REMARK  173  A    between atoms: _417  and  _418
REMARK  174  A    between atoms: _421  and  _423
REMARK  175  A    between atoms: _423  and  _424
REMARK  176  A    between atoms: _423  and  _426
REMARK  177  A    between atoms: _426  and  _427
REMARK  178  A    between atoms: _432  and  _434
REMARK  179  A    between atoms: _434  and  _435
REMARK  180  A    between atoms: _434  and  _437
REMARK  181  A    between atoms: _437  and  _438
REMARK                            x       y       z     vdW  Elec       q    Type
REMARK                         _______ _______ _______ _____ _____    ______ ____
ROOT
ATOM      1  O   HOH     1       2.482  11.119   7.584  0.00  0.00    +0.000 OA
ENDROOT
TORSDOF 0
REMARK  Name = ../refined-set-2016/3bex/3bex_pocket.pdb
REMARK  181 active torsions:
REMARK  status: ('A' for Active; 'I' for Inactive)
REMARK    1  A    between atoms: _1  and  _3
REMARK    2  A    between atoms: _3  and  _4
REMARK    3  A    between atoms: _3  and  _6
REMARK    4  A    between atoms: _6  and  _7
REMARK    5  A    between atoms: _10  and  _12
REMARK    6  A    between atoms: _12  and  _13
REMARK    7  A    between atoms: _12  and  _15
REMARK    8  A    between atoms: _18  and  _20
REMARK    9  A    between atoms: _20  and  _21
REMARK   10  A    between atoms: _23  and  _25
REMARK   11  A    between atoms: _25  and  _26
REMARK   12  A    between atoms: _25  and  _28
REMARK   13  A    between atoms: _28  and  _29
REMARK   14  A    between atoms: _34  and  _36
REMARK   15  A    between atoms: _36  and  _37
REMARK   16  A    between atoms: _36  and  _39
REMARK   17  A    between atoms: _39  and  _40
REMARK   18  A    between atoms: _43  and  _45
REMARK   19  A    between atoms: _45  and  _46
REMARK   20  A    between atoms: _45  and  _48
REMARK   21  A    between atoms: _48  and  _49
REMARK   22  A    between atoms: _51  and  _53
REMARK   23  A    between atoms: _53  and  _54
REMARK   24  A    between atoms: _53  and  _56
REMARK   25  A    between atoms: _59  and  _61
REMARK   26  A    between atoms: _61  and  _62
REMARK   27  A    between atoms: _61  and  _64
REMARK   28  A    between atoms: _68  and  _69
REMARK   29  A    between atoms: _74  and  _76
REMARK   30  A    between atoms: _76  and  _77
REMARK   31  A    between atoms: _76  and  _79
REMARK   32  A    between atoms: _82  and  _84
REMARK   33  A    between atoms: _84  and  _85
REMARK   34  A    between atoms: _84  and  _87
REMARK   35  A    between atoms: _87  and  _88
REMARK   36  A    between atoms: _94  and  _95
REMARK   37  A    between atoms: _100  and  _102
REMARK   38  A    between atoms: _102  and  _103
REMARK   39  A    between atoms: _102  and  _105
REMARK   40  A    between atoms: _105  and  _106
REMARK   41  A    between atoms: _108  and  _110
REMARK   42  A    between atoms: _110  and  _111
REMARK   43  A    between atoms: _110  and  _113
REMARK   44  A    between atoms: _113  and  _114
REMARK   45  A    between atoms: _114  and  _115
REMARK   46  A    between atoms: _118  and  _120
REMARK   47  A    between atoms: _120  and  _121
REMARK   48  A    between atoms: _120  and  _123
REMARK   49  A    between atoms: _126  and  _128
REMARK   50  A    between atoms: _128  and  _129
REMARK   51  A    between atoms: _131  and  _133
REMARK   52  A    between atoms: _133  and  _134
REMARK   53  A    between atoms: _137  and  _139
REMARK   54  A    between atoms: _139  and  _140
REMARK   55  A    between atoms: _139  and  _142
REMARK   56  A    between atoms: _142  and  _143
REMARK   57  A    between atoms: _146  and  _148
REMARK   58  A    between atoms: _148  and  _149
REMARK   59  A    between atoms: _148  and  _151
REMARK   60  A    between atoms: _151  and  _152
REMARK   61  A    between atoms: _152  and  _153
REMARK   62  A    between atoms: _153  and  _154
REMARK   63  A    between atoms: _163  and  _165
REMARK   64  A    between atoms: _165  and  _166
REMARK   65  A    between atoms: _165  and  _168
REMARK   66  A    between atoms: _171  and  _173
REMARK   67  A    between atoms: _173  and  _174
REMARK   68  A    between atoms: _173  and  _176
REMARK   69  A    between atoms: _176  and  _177
REMARK   70  A    between atoms: _182  and  _184
REMARK   71  A    between atoms: _184  and  _185
REMARK   72  A    between atoms: _184  and  _187
REMARK   73  A    between atoms: _187  and  _188
REMARK   74  A    between atoms: _191  and  _193
REMARK   75  A    between atoms: _193  and  _194
REMARK   76  A    between atoms: _196  and  _198
REMARK   77  A    between atoms: _198  and  _199
REMARK   78  A    between atoms: _198  and  _201
REMARK   79  A    between atoms: _201  and  _202
REMARK   80  A    between atoms: _205  and  _207
REMARK   81  A    between atoms: _207  and  _208
REMARK   82  A    between atoms: _211  and  _213
REMARK   83  A    between atoms: _213  and  _214
REMARK   84  A    between atoms: _213  and  _216
REMARK   85  A    between atoms: _216  and  _217
REMARK   86  A    between atoms: _220  and  _222
REMARK   87  A    between atoms: _222  and  _223
REMARK   88  A    between atoms: _222  and  _225
REMARK   89  A    between atoms: _225  and  _226
REMARK   90  A    between atoms: _229  and  _231
REMARK   91  A    between atoms: _231  and  _232
REMARK   92  A    between atoms: _231  and  _234
REMARK   93  A    between atoms: _237  and  _239
REMARK   94  A    between atoms: _239  and  _240
REMARK   95  A    between atoms: _239  and  _242
REMARK   96  A    between atoms: _242  and  _243
REMARK   97  A    between atoms: _246  and  _248
REMARK   98  A    between atoms: _248  and  _249
REMARK   99  A    between atoms: _248  and  _251
REMARK  100  A    between atoms: _251  and  _252
REMARK  101  A    between atoms: _257  and  _258
REMARK  102  A    between atoms: _260  and  _262
REMARK  103  A    between atoms: _262  and  _263
REMARK  104  A    between atoms: _265  and  _267
REMARK  105  A    between atoms: _267  and  _268
REMARK  106  A    between atoms: _271  and  _273
REMARK  107  A    between atoms: _273  and  _274
REMARK  108  A    between atoms: _273  and  _276
REMARK  109  A    between atoms: _276  and  _277
REMARK  110  A    between atoms: _280  and  _282
REMARK  111  A    between atoms: _282  and  _283
REMARK  112  A    between atoms: _282  and  _285
REMARK  113  A    between atoms: _285  and  _286
REMARK  114  A    between atoms: _289  and  _291
REMARK  115  A    between atoms: _291  and  _292
REMARK  116  A    between atoms: _291  and  _294
REMARK  117  A    between atoms: _294  and  _295
REMARK  118  A    between atoms: _295  and  _296
REMARK  119  A    between atoms: _298  and  _300
REMARK  120  A    between atoms: _300  and  _301
REMARK  121  A    between atoms: _300  and  _303
REMARK  122  A    between atoms: _303  and  _304
REMARK  123  A    between atoms: _307  and  _309
REMARK  124  A    between atoms: _309  and  _310
REMARK  125  A    between atoms: _309  and  _312
REMARK  126  A    between atoms: _312  and  _313
REMARK  127  A    between atoms: _316  and  _318
REMARK  128  A    between atoms: _318  and  _319
REMARK  129  A    between atoms: _321  and  _323
REMARK  130  A    between atoms: _323  and  _324
REMARK  131  A    between atoms: _323  and  _326
REMARK  132  A    between atoms: _326  and  _327
REMARK  133  A    between atoms: _330  and  _332
REMARK  134  A    between atoms: _332  and  _333
REMARK  135  A    between atoms: _336  and  _338
REMARK  136  A    between atoms: _338  and  _339
REMARK  137  A    between atoms: _338  and  _341
REMARK  138  A    between atoms: _341  and  _342
REMARK  139  A    between atoms: _342  and  _343
REMARK  140  A    between atoms: _343  and  _344
REMARK  141  A    between atoms: _344  and  _345
REMARK  142  A    between atoms: _349  and  _351
REMARK  143  A    between atoms: _351  and  _352
REMARK  144  A    between atoms: _351  and  _354
REMARK  145  A    between atoms: _354  and  _355
REMARK  146  A    between atoms: _359  and  _360
REMARK  147  A    between atoms: _365  and  _367
REMARK  148  A    between atoms: _367  and  _368
REMARK  149  A    between atoms: _370  and  _372
REMARK  150  A    between atoms: _372  and  _373
REMARK  151  A    between atoms: _372  and  _375
REMARK  152  A    between atoms: _375  and  _376
REMARK  153  A    between atoms: _376  and  _377
REMARK  154  A    between atoms: _377  and  _378
REMARK  155  A    between atoms: _378  and  _379
REMARK  156  A    between atoms: _383  and  _385
REMARK  157  A    between atoms: _385  and  _386
REMARK  158  A    between atoms: _385  and  _388
REMARK  159  A    between atoms: _388  and  _389
REMARK  160  A    between atoms: _392  and  _394
REMARK  161  A    between atoms: _394  and  _395
REMARK  162  A    between atoms: _394  and  _397
REMARK  163  A    between atoms: _397  and  _398
REMARK  164  A    between atoms: _401  and  _403
REMARK  165  A    between atoms: _403  and  _404
REMARK  166  A    between atoms: _403  and  _406
REMARK  167  A    between atoms: _406  and  _407
REMARK  168  A    between atoms: _407  and  _408
REMARK  169  A    between atoms: _411  and  _413
REMARK  170  A    between atoms: _413  and  _414
REMARK  171  A    between atoms: _413  and  _416
REMARK  172  A    between atoms: _416  and  _417
REMARK  173  A    between atoms: _417  and  _418
REMARK  174  A    between atoms: _421  and  _423
REMARK  175  A    between atoms: _423  and  _424
REMARK  176  A    between atoms: _423  and  _426
REMARK  177  A    between atoms: _426  and  _427
REMARK  178  A    between atoms: _432  and  _434
REMARK  179  A    between atoms: _434  and  _435
REMARK  180  A    between atoms: _434  and  _437
REMARK  181  A    between atoms: _437  and  _438
REMARK                            x       y       z     vdW  Elec       q    Type
REMARK                         _______ _______ _______ _____ _____    ______ ____
ROOT
ATOM      1  O   HOH     1       2.216  17.118  19.213  0.00  0.00    +0.000 OA
ENDROOT
TORSDOF 0
REMARK  Name = ../refined-set-2016/3bex/3bex_pocket.pdb
REMARK  181 active torsions:
REMARK  status: ('A' for Active; 'I' for Inactive)
REMARK    1  A    between atoms: _1  and  _3
REMARK    2  A    between atoms: _3  and  _4
REMARK    3  A    between atoms: _3  and  _6
REMARK    4  A    between atoms: _6  and  _7
REMARK    5  A    between atoms: _10  and  _12
REMARK    6  A    between atoms: _12  and  _13
REMARK    7  A    between atoms: _12  and  _15
REMARK    8  A    between atoms: _18  and  _20
REMARK    9  A    between atoms: _20  and  _21
REMARK   10  A    between atoms: _23  and  _25
REMARK   11  A    between atoms: _25  and  _26
REMARK   12  A    between atoms: _25  and  _28
REMARK   13  A    between atoms: _28  and  _29
REMARK   14  A    between atoms: _34  and  _36
REMARK   15  A    between atoms: _36  and  _37
REMARK   16  A    between atoms: _36  and  _39
REMARK   17  A    between atoms: _39  and  _40
REMARK   18  A    between atoms: _43  and  _45
REMARK   19  A    between atoms: _45  and  _46
REMARK   20  A    between atoms: _45  and  _48
REMARK   21  A    between atoms: _48  and  _49
REMARK   22  A    between atoms: _51  and  _53
REMARK   23  A    between atoms: _53  and  _54
REMARK   24  A    between atoms: _53  and  _56
REMARK   25  A    between atoms: _59  and  _61
REMARK   26  A    between atoms: _61  and  _62
REMARK   27  A    between atoms: _61  and  _64
REMARK   28  A    between atoms: _68  and  _69
REMARK   29  A    between atoms: _74  and  _76
REMARK   30  A    between atoms: _76  and  _77
REMARK   31  A    between atoms: _76  and  _79
REMARK   32  A    between atoms: _82  and  _84
REMARK   33  A    between atoms: _84  and  _85
REMARK   34  A    between atoms: _84  and  _87
REMARK   35  A    between atoms: _87  and  _88
REMARK   36  A    between atoms: _94  and  _95
REMARK   37  A    between atoms: _100  and  _102
REMARK   38  A    between atoms: _102  and  _103
REMARK   39  A    between atoms: _102  and  _105
REMARK   40  A    between atoms: _105  and  _106
REMARK   41  A    between atoms: _108  and  _110
REMARK   42  A    between atoms: _110  and  _111
REMARK   43  A    between atoms: _110  and  _113
REMARK   44  A    between atoms: _113  and  _114
REMARK   45  A    between atoms: _114  and  _115
REMARK   46  A    between atoms: _118  and  _120
REMARK   47  A    between atoms: _120  and  _121
REMARK   48  A    between atoms: _120  and  _123
REMARK   49  A    between atoms: _126  and  _128
REMARK   50  A    between atoms: _128  and  _129
REMARK   51  A    between atoms: _131  and  _133
REMARK   52  A    between atoms: _133  and  _134
REMARK   53  A    between atoms: _137  and  _139
REMARK   54  A    between atoms: _139  and  _140
REMARK   55  A    between atoms: _139  and  _142
REMARK   56  A    between atoms: _142  and  _143
REMARK   57  A    between atoms: _146  and  _148
REMARK   58  A    between atoms: _148  and  _149
REMARK   59  A    between atoms: _148  and  _151
REMARK   60  A    between atoms: _151  and  _152
REMARK   61  A    between atoms: _152  and  _153
REMARK   62  A    between atoms: _153  and  _154
REMARK   63  A    between atoms: _163  and  _165
REMARK   64  A    between atoms: _165  and  _166
REMARK   65  A    between atoms: _165  and  _168
REMARK   66  A    between atoms: _171  and  _173
REMARK   67  A    between atoms: _173  and  _174
REMARK   68  A    between atoms: _173  and  _176
REMARK   69  A    between atoms: _176  and  _177
REMARK   70  A    between atoms: _182  and  _184
REMARK   71  A    between atoms: _184  and  _185
REMARK   72  A    between atoms: _184  and  _187
REMARK   73  A    between atoms: _187  and  _188
REMARK   74  A    between atoms: _191  and  _193
REMARK   75  A    between atoms: _193  and  _194
REMARK   76  A    between atoms: _196  and  _198
REMARK   77  A    between atoms: _198  and  _199
REMARK   78  A    between atoms: _198  and  _201
REMARK   79  A    between atoms: _201  and  _202
REMARK   80  A    between atoms: _205  and  _207
REMARK   81  A    between atoms: _207  and  _208
REMARK   82  A    between atoms: _211  and  _213
REMARK   83  A    between atoms: _213  and  _214
REMARK   84  A    between atoms: _213  and  _216
REMARK   85  A    between atoms: _216  and  _217
REMARK   86  A    between atoms: _220  and  _222
REMARK   87  A    between atoms: _222  and  _223
REMARK   88  A    between atoms: _222  and  _225
REMARK   89  A    between atoms: _225  and  _226
REMARK   90  A    between atoms: _229  and  _231
REMARK   91  A    between atoms: _231  and  _232
REMARK   92  A    between atoms: _231  and  _234
REMARK   93  A    between atoms: _237  and  _239
REMARK   94  A    between atoms: _239  and  _240
REMARK   95  A    between atoms: _239  and  _242
REMARK   96  A    between atoms: _242  and  _243
REMARK   97  A    between atoms: _246  and  _248
REMARK   98  A    between atoms: _248  and  _249
REMARK   99  A    between atoms: _248  and  _251
REMARK  100  A    between atoms: _251  and  _252
REMARK  101  A    between atoms: _257  and  _258
REMARK  102  A    between atoms: _260  and  _262
REMARK  103  A    between atoms: _262  and  _263
REMARK  104  A    between atoms: _265  and  _267
REMARK  105  A    between atoms: _267  and  _268
REMARK  106  A    between atoms: _271  and  _273
REMARK  107  A    between atoms: _273  and  _274
REMARK  108  A    between atoms: _273  and  _276
REMARK  109  A    between atoms: _276  and  _277
REMARK  110  A    between atoms: _280  and  _282
REMARK  111  A    between atoms: _282  and  _283
REMARK  112  A    between atoms: _282  and  _285
REMARK  113  A    between atoms: _285  and  _286
REMARK  114  A    between atoms: _289  and  _291
REMARK  115  A    between atoms: _291  and  _292
REMARK  116  A    between atoms: _291  and  _294
REMARK  117  A    between atoms: _294  and  _295
REMARK  118  A    between atoms: _295  and  _296
REMARK  119  A    between atoms: _298  and  _300
REMARK  120  A    between atoms: _300  and  _301
REMARK  121  A    between atoms: _300  and  _303
REMARK  122  A    between atoms: _303  and  _304
REMARK  123  A    between atoms: _307  and  _309
REMARK  124  A    between atoms: _309  and  _310
REMARK  125  A    between atoms: _309  and  _312
REMARK  126  A    between atoms: _312  and  _313
REMARK  127  A    between atoms: _316  and  _318
REMARK  128  A    between atoms: _318  and  _319
REMARK  129  A    between atoms: _321  and  _323
REMARK  130  A    between atoms: _323  and  _324
REMARK  131  A    between atoms: _323  and  _326
REMARK  132  A    between atoms: _326  and  _327
REMARK  133  A    between atoms: _330  and  _332
REMARK  134  A    between atoms: _332  and  _333
REMARK  135  A    between atoms: _336  and  _338
REMARK  136  A    between atoms: _338  and  _339
REMARK  137  A    between atoms: _338  and  _341
REMARK  138  A    between atoms: _341  and  _342
REMARK  139  A    between atoms: _342  and  _343
REMARK  140  A    between atoms: _343  and  _344
REMARK  141  A    between atoms: _344  and  _345
REMARK  142  A    between atoms: _349  and  _351
REMARK  143  A    between atoms: _351  and  _352
REMARK  144  A    between atoms: _351  and  _354
REMARK  145  A    between atoms: _354  and  _355
REMARK  146  A    between atoms: _359  and  _360
REMARK  147  A    between atoms: _365  and  _367
REMARK  148  A    between atoms: _367  and  _368
REMARK  149  A    between atoms: _370  and  _372
REMARK  150  A    between atoms: _372  and  _373
REMARK  151  A    between atoms: _372  and  _375
REMARK  152  A    between atoms: _375  and  _376
REMARK  153  A    between atoms: _376  and  _377
REMARK  154  A    between atoms: _377  and  _378
REMARK  155  A    between atoms: _378  and  _379
REMARK  156  A    between atoms: _383  and  _385
REMARK  157  A    between atoms: _385  and  _386
REMARK  158  A    between atoms: _385  and  _388
REMARK  159  A    between atoms: _388  and  _389
REMARK  160  A    between atoms: _392  and  _394
REMARK  161  A    between atoms: _394  and  _395
REMARK  162  A    between atoms: _394  and  _397
REMARK  163  A    between atoms: _397  and  _398
REMARK  164  A    between atoms: _401  and  _403
REMARK  165  A    between atoms: _403  and  _404
REMARK  166  A    between atoms: _403  and  _406
REMARK  167  A    between atoms: _406  and  _407
REMARK  168  A    between atoms: _407  and  _408
REMARK  169  A    between atoms: _411  and  _413
REMARK  170  A    between atoms: _413  and  _414
REMARK  171  A    between atoms: _413  and  _416
REMARK  172  A    between atoms: _416  and  _417
REMARK  173  A    between atoms: _417  and  _418
REMARK  174  A    between atoms: _421  and  _423
REMARK  175  A    between atoms: _423  and  _424
REMARK  176  A    between atoms: _423  and  _426
REMARK  177  A    between atoms: _426  and  _427
REMARK  178  A    between atoms: _432  and  _434
REMARK  179  A    between atoms: _434  and  _435
REMARK  180  A    between atoms: _434  and  _437
REMARK  181  A    between atoms: _437  and  _438
REMARK                            x       y       z     vdW  Elec       q    Type
REMARK                         _______ _______ _______ _____ _____    ______ ____
ROOT
ATOM      1  O   HOH     1       1.472  14.525  20.947  0.00  0.00    +0.000 OA
ENDROOT
TORSDOF 0
REMARK  Name = ../refined-set-2016/3bex/3bex_pocket.pdb
REMARK  181 active torsions:
REMARK  status: ('A' for Active; 'I' for Inactive)
REMARK    1  A    between atoms: _1  and  _3
REMARK    2  A    between atoms: _3  and  _4
REMARK    3  A    between atoms: _3  and  _6
REMARK    4  A    between atoms: _6  and  _7
REMARK    5  A    between atoms: _10  and  _12
REMARK    6  A    between atoms: _12  and  _13
REMARK    7  A    between atoms: _12  and  _15
REMARK    8  A    between atoms: _18  and  _20
REMARK    9  A    between atoms: _20  and  _21
REMARK   10  A    between atoms: _23  and  _25
REMARK   11  A    between atoms: _25  and  _26
REMARK   12  A    between atoms: _25  and  _28
REMARK   13  A    between atoms: _28  and  _29
REMARK   14  A    between atoms: _34  and  _36
REMARK   15  A    between atoms: _36  and  _37
REMARK   16  A    between atoms: _36  and  _39
REMARK   17  A    between atoms: _39  and  _40
REMARK   18  A    between atoms: _43  and  _45
REMARK   19  A    between atoms: _45  and  _46
REMARK   20  A    between atoms: _45  and  _48
REMARK   21  A    between atoms: _48  and  _49
REMARK   22  A    between atoms: _51  and  _53
REMARK   23  A    between atoms: _53  and  _54
REMARK   24  A    between atoms: _53  and  _56
REMARK   25  A    between atoms: _59  and  _61
REMARK   26  A    between atoms: _61  and  _62
REMARK   27  A    between atoms: _61  and  _64
REMARK   28  A    between atoms: _68  and  _69
REMARK   29  A    between atoms: _74  and  _76
REMARK   30  A    between atoms: _76  and  _77
REMARK   31  A    between atoms: _76  and  _79
REMARK   32  A    between atoms: _82  and  _84
REMARK   33  A    between atoms: _84  and  _85
REMARK   34  A    between atoms: _84  and  _87
REMARK   35  A    between atoms: _87  and  _88
REMARK   36  A    between atoms: _94  and  _95
REMARK   37  A    between atoms: _100  and  _102
REMARK   38  A    between atoms: _102  and  _103
REMARK   39  A    between atoms: _102  and  _105
REMARK   40  A    between atoms: _105  and  _106
REMARK   41  A    between atoms: _108  and  _110
REMARK   42  A    between atoms: _110  and  _111
REMARK   43  A    between atoms: _110  and  _113
REMARK   44  A    between atoms: _113  and  _114
REMARK   45  A    between atoms: _114  and  _115
REMARK   46  A    between atoms: _118  and  _120
REMARK   47  A    between atoms: _120  and  _121
REMARK   48  A    between atoms: _120  and  _123
REMARK   49  A    between atoms: _126  and  _128
REMARK   50  A    between atoms: _128  and  _129
REMARK   51  A    between atoms: _131  and  _133
REMARK   52  A    between atoms: _133  and  _134
REMARK   53  A    between atoms: _137  and  _139
REMARK   54  A    between atoms: _139  and  _140
REMARK   55  A    between atoms: _139  and  _142
REMARK   56  A    between atoms: _142  and  _143
REMARK   57  A    between atoms: _146  and  _148
REMARK   58  A    between atoms: _148  and  _149
REMARK   59  A    between atoms: _148  and  _151
REMARK   60  A    between atoms: _151  and  _152
REMARK   61  A    between atoms: _152  and  _153
REMARK   62  A    between atoms: _153  and  _154
REMARK   63  A    between atoms: _163  and  _165
REMARK   64  A    between atoms: _165  and  _166
REMARK   65  A    between atoms: _165  and  _168
REMARK   66  A    between atoms: _171  and  _173
REMARK   67  A    between atoms: _173  and  _174
REMARK   68  A    between atoms: _173  and  _176
REMARK   69  A    between atoms: _176  and  _177
REMARK   70  A    between atoms: _182  and  _184
REMARK   71  A    between atoms: _184  and  _185
REMARK   72  A    between atoms: _184  and  _187
REMARK   73  A    between atoms: _187  and  _188
REMARK   74  A    between atoms: _191  and  _193
REMARK   75  A    between atoms: _193  and  _194
REMARK   76  A    between atoms: _196  and  _198
REMARK   77  A    between atoms: _198  and  _199
REMARK   78  A    between atoms: _198  and  _201
REMARK   79  A    between atoms: _201  and  _202
REMARK   80  A    between atoms: _205  and  _207
REMARK   81  A    between atoms: _207  and  _208
REMARK   82  A    between atoms: _211  and  _213
REMARK   83  A    between atoms: _213  and  _214
REMARK   84  A    between atoms: _213  and  _216
REMARK   85  A    between atoms: _216  and  _217
REMARK   86  A    between atoms: _220  and  _222
REMARK   87  A    between atoms: _222  and  _223
REMARK   88  A    between atoms: _222  and  _225
REMARK   89  A    between atoms: _225  and  _226
REMARK   90  A    between atoms: _229  and  _231
REMARK   91  A    between atoms: _231  and  _232
REMARK   92  A    between atoms: _231  and  _234
REMARK   93  A    between atoms: _237  and  _239
REMARK   94  A    between atoms: _239  and  _240
REMARK   95  A    between atoms: _239  and  _242
REMARK   96  A    between atoms: _242  and  _243
REMARK   97  A    between atoms: _246  and  _248
REMARK   98  A    between atoms: _248  and  _249
REMARK   99  A    between atoms: _248  and  _251
REMARK  100  A    between atoms: _251  and  _252
REMARK  101  A    between atoms: _257  and  _258
REMARK  102  A    between atoms: _260  and  _262
REMARK  103  A    between atoms: _262  and  _263
REMARK  104  A    between atoms: _265  and  _267
REMARK  105  A    between atoms: _267  and  _268
REMARK  106  A    between atoms: _271  and  _273
REMARK  107  A    between atoms: _273  and  _274
REMARK  108  A    between atoms: _273  and  _276
REMARK  109  A    between atoms: _276  and  _277
REMARK  110  A    between atoms: _280  and  _282
REMARK  111  A    between atoms: _282  and  _283
REMARK  112  A    between atoms: _282  and  _285
REMARK  113  A    between atoms: _285  and  _286
REMARK  114  A    between atoms: _289  and  _291
REMARK  115  A    between atoms: _291  and  _292
REMARK  116  A    between atoms: _291  and  _294
REMARK  117  A    between atoms: _294  and  _295
REMARK  118  A    between atoms: _295  and  _296
REMARK  119  A    between atoms: _298  and  _300
REMARK  120  A    between atoms: _300  and  _301
REMARK  121  A    between atoms: _300  and  _303
REMARK  122  A    between atoms: _303  and  _304
REMARK  123  A    between atoms: _307  and  _309
REMARK  124  A    between atoms: _309  and  _310
REMARK  125  A    between atoms: _309  and  _312
REMARK  126  A    between atoms: _312  and  _313
REMARK  127  A    between atoms: _316  and  _318
REMARK  128  A    between atoms: _318  and  _319
REMARK  129  A    between atoms: _321  and  _323
REMARK  130  A    between atoms: _323  and  _324
REMARK  131  A    between atoms: _323  and  _326
REMARK  132  A    between atoms: _326  and  _327
REMARK  133  A    between atoms: _330  and  _332
REMARK  134  A    between atoms: _332  and  _333
REMARK  135  A    between atoms: _336  and  _338
REMARK  136  A    between atoms: _338  and  _339
REMARK  137  A    between atoms: _338  and  _341
REMARK  138  A    between atoms: _341  and  _342
REMARK  139  A    between atoms: _342  and  _343
REMARK  140  A    between atoms: _343  and  _344
REMARK  141  A    between atoms: _344  and  _345
REMARK  142  A    between atoms: _349  and  _351
REMARK  143  A    between atoms: _351  and  _352
REMARK  144  A    between atoms: _351  and  _354
REMARK  145  A    between atoms: _354  and  _355
REMARK  146  A    between atoms: _359  and  _360
REMARK  147  A    between atoms: _365  and  _367
REMARK  148  A    between atoms: _367  and  _368
REMARK  149  A    between atoms: _370  and  _372
REMARK  150  A    between atoms: _372  and  _373
REMARK  151  A    between atoms: _372  and  _375
REMARK  152  A    between atoms: _375  and  _376
REMARK  153  A    between atoms: _376  and  _377
REMARK  154  A    between atoms: _377  and  _378
REMARK  155  A    between atoms: _378  and  _379
REMARK  156  A    between atoms: _383  and  _385
REMARK  157  A    between atoms: _385  and  _386
REMARK  158  A    between atoms: _385  and  _388
REMARK  159  A    between atoms: _388  and  _389
REMARK  160  A    between atoms: _392  and  _394
REMARK  161  A    between atoms: _394  and  _395
REMARK  162  A    between atoms: _394  and  _397
REMARK  163  A    between atoms: _397  and  _398
REMARK  164  A    between atoms: _401  and  _403
REMARK  165  A    between atoms: _403  and  _404
REMARK  166  A    between atoms: _403  and  _406
REMARK  167  A    between atoms: _406  and  _407
REMARK  168  A    between atoms: _407  and  _408
REMARK  169  A    between atoms: _411  and  _413
REMARK  170  A    between atoms: _413  and  _414
REMARK  171  A    between atoms: _413  and  _416
REMARK  172  A    between atoms: _416  and  _417
REMARK  173  A    between atoms: _417  and  _418
REMARK  174  A    between atoms: _421  and  _423
REMARK  175  A    between atoms: _423  and  _424
REMARK  176  A    between atoms: _423  and  _426
REMARK  177  A    between atoms: _426  and  _427
REMARK  178  A    between atoms: _432  and  _434
REMARK  179  A    between atoms: _434  and  _435
REMARK  180  A    between atoms: _434  and  _437
REMARK  181  A    between atoms: _437  and  _438
REMARK                            x       y       z     vdW  Elec       q    Type
REMARK                         _______ _______ _______ _____ _____    ______ ____
ROOT
ATOM      1  O   HOH     1       1.052   9.051   6.742  0.00  0.00    +0.000 OA
ENDROOT
TORSDOF 0
REMARK  Name = ../refined-set-2016/3bex/3bex_pocket.pdb
REMARK  181 active torsions:
REMARK  status: ('A' for Active; 'I' for Inactive)
REMARK    1  A    between atoms: _1  and  _3
REMARK    2  A    between atoms: _3  and  _4
REMARK    3  A    between atoms: _3  and  _6
REMARK    4  A    between atoms: _6  and  _7
REMARK    5  A    between atoms: _10  and  _12
REMARK    6  A    between atoms: _12  and  _13
REMARK    7  A    between atoms: _12  and  _15
REMARK    8  A    between atoms: _18  and  _20
REMARK    9  A    between atoms: _20  and  _21
REMARK   10  A    between atoms: _23  and  _25
REMARK   11  A    between atoms: _25  and  _26
REMARK   12  A    between atoms: _25  and  _28
REMARK   13  A    between atoms: _28  and  _29
REMARK   14  A    between atoms: _34  and  _36
REMARK   15  A    between atoms: _36  and  _37
REMARK   16  A    between atoms: _36  and  _39
REMARK   17  A    between atoms: _39  and  _40
REMARK   18  A    between atoms: _43  and  _45
REMARK   19  A    between atoms: _45  and  _46
REMARK   20  A    between atoms: _45  and  _48
REMARK   21  A    between atoms: _48  and  _49
REMARK   22  A    between atoms: _51  and  _53
REMARK   23  A    between atoms: _53  and  _54
REMARK   24  A    between atoms: _53  and  _56
REMARK   25  A    between atoms: _59  and  _61
REMARK   26  A    between atoms: _61  and  _62
REMARK   27  A    between atoms: _61  and  _64
REMARK   28  A    between atoms: _68  and  _69
REMARK   29  A    between atoms: _74  and  _76
REMARK   30  A    between atoms: _76  and  _77
REMARK   31  A    between atoms: _76  and  _79
REMARK   32  A    between atoms: _82  and  _84
REMARK   33  A    between atoms: _84  and  _85
REMARK   34  A    between atoms: _84  and  _87
REMARK   35  A    between atoms: _87  and  _88
REMARK   36  A    between atoms: _94  and  _95
REMARK   37  A    between atoms: _100  and  _102
REMARK   38  A    between atoms: _102  and  _103
REMARK   39  A    between atoms: _102  and  _105
REMARK   40  A    between atoms: _105  and  _106
REMARK   41  A    between atoms: _108  and  _110
REMARK   42  A    between atoms: _110  and  _111
REMARK   43  A    between atoms: _110  and  _113
REMARK   44  A    between atoms: _113  and  _114
REMARK   45  A    between atoms: _114  and  _115
REMARK   46  A    between atoms: _118  and  _120
REMARK   47  A    between atoms: _120  and  _121
REMARK   48  A    between atoms: _120  and  _123
REMARK   49  A    between atoms: _126  and  _128
REMARK   50  A    between atoms: _128  and  _129
REMARK   51  A    between atoms: _131  and  _133
REMARK   52  A    between atoms: _133  and  _134
REMARK   53  A    between atoms: _137  and  _139
REMARK   54  A    between atoms: _139  and  _140
REMARK   55  A    between atoms: _139  and  _142
REMARK   56  A    between atoms: _142  and  _143
REMARK   57  A    between atoms: _146  and  _148
REMARK   58  A    between atoms: _148  and  _149
REMARK   59  A    between atoms: _148  and  _151
REMARK   60  A    between atoms: _151  and  _152
REMARK   61  A    between atoms: _152  and  _153
REMARK   62  A    between atoms: _153  and  _154
REMARK   63  A    between atoms: _163  and  _165
REMARK   64  A    between atoms: _165  and  _166
REMARK   65  A    between atoms: _165  and  _168
REMARK   66  A    between atoms: _171  and  _173
REMARK   67  A    between atoms: _173  and  _174
REMARK   68  A    between atoms: _173  and  _176
REMARK   69  A    between atoms: _176  and  _177
REMARK   70  A    between atoms: _182  and  _184
REMARK   71  A    between atoms: _184  and  _185
REMARK   72  A    between atoms: _184  and  _187
REMARK   73  A    between atoms: _187  and  _188
REMARK   74  A    between atoms: _191  and  _193
REMARK   75  A    between atoms: _193  and  _194
REMARK   76  A    between atoms: _196  and  _198
REMARK   77  A    between atoms: _198  and  _199
REMARK   78  A    between atoms: _198  and  _201
REMARK   79  A    between atoms: _201  and  _202
REMARK   80  A    between atoms: _205  and  _207
REMARK   81  A    between atoms: _207  and  _208
REMARK   82  A    between atoms: _211  and  _213
REMARK   83  A    between atoms: _213  and  _214
REMARK   84  A    between atoms: _213  and  _216
REMARK   85  A    between atoms: _216  and  _217
REMARK   86  A    between atoms: _220  and  _222
REMARK   87  A    between atoms: _222  and  _223
REMARK   88  A    between atoms: _222  and  _225
REMARK   89  A    between atoms: _225  and  _226
REMARK   90  A    between atoms: _229  and  _231
REMARK   91  A    between atoms: _231  and  _232
REMARK   92  A    between atoms: _231  and  _234
REMARK   93  A    between atoms: _237  and  _239
REMARK   94  A    between atoms: _239  and  _240
REMARK   95  A    between atoms: _239  and  _242
REMARK   96  A    between atoms: _242  and  _243
REMARK   97  A    between atoms: _246  and  _248
REMARK   98  A    between atoms: _248  and  _249
REMARK   99  A    between atoms: _248  and  _251
REMARK  100  A    between atoms: _251  and  _252
REMARK  101  A    between atoms: _257  and  _258
REMARK  102  A    between atoms: _260  and  _262
REMARK  103  A    between atoms: _262  and  _263
REMARK  104  A    between atoms: _265  and  _267
REMARK  105  A    between atoms: _267  and  _268
REMARK  106  A    between atoms: _271  and  _273
REMARK  107  A    between atoms: _273  and  _274
REMARK  108  A    between atoms: _273  and  _276
REMARK  109  A    between atoms: _276  and  _277
REMARK  110  A    between atoms: _280  and  _282
REMARK  111  A    between atoms: _282  and  _283
REMARK  112  A    between atoms: _282  and  _285
REMARK  113  A    between atoms: _285  and  _286
REMARK  114  A    between atoms: _289  and  _291
REMARK  115  A    between atoms: _291  and  _292
REMARK  116  A    between atoms: _291  and  _294
REMARK  117  A    between atoms: _294  and  _295
REMARK  118  A    between atoms: _295  and  _296
REMARK  119  A    between atoms: _298  and  _300
REMARK  120  A    between atoms: _300  and  _301
REMARK  121  A    between atoms: _300  and  _303
REMARK  122  A    between atoms: _303  and  _304
REMARK  123  A    between atoms: _307  and  _309
REMARK  124  A    between atoms: _309  and  _310
REMARK  125  A    between atoms: _309  and  _312
REMARK  126  A    between atoms: _312  and  _313
REMARK  127  A    between atoms: _316  and  _318
REMARK  128  A    between atoms: _318  and  _319
REMARK  129  A    between atoms: _321  and  _323
REMARK  130  A    between atoms: _323  and  _324
REMARK  131  A    between atoms: _323  and  _326
REMARK  132  A    between atoms: _326  and  _327
REMARK  133  A    between atoms: _330  and  _332
REMARK  134  A    between atoms: _332  and  _333
REMARK  135  A    between atoms: _336  and  _338
REMARK  136  A    between atoms: _338  and  _339
REMARK  137  A    between atoms: _338  and  _341
REMARK  138  A    between atoms: _341  and  _342
REMARK  139  A    between atoms: _342  and  _343
REMARK  140  A    between atoms: _343  and  _344
REMARK  141  A    between atoms: _344  and  _345
REMARK  142  A    between atoms: _349  and  _351
REMARK  143  A    between atoms: _351  and  _352
REMARK  144  A    between atoms: _351  and  _354
REMARK  145  A    between atoms: _354  and  _355
REMARK  146  A    between atoms: _359  and  _360
REMARK  147  A    between atoms: _365  and  _367
REMARK  148  A    between atoms: _367  and  _368
REMARK  149  A    between atoms: _370  and  _372
REMARK  150  A    between atoms: _372  and  _373
REMARK  151  A    between atoms: _372  and  _375
REMARK  152  A    between atoms: _375  and  _376
REMARK  153  A    between atoms: _376  and  _377
REMARK  154  A    between atoms: _377  and  _378
REMARK  155  A    between atoms: _378  and  _379
REMARK  156  A    between atoms: _383  and  _385
REMARK  157  A    between atoms: _385  and  _386
REMARK  158  A    between atoms: _385  and  _388
REMARK  159  A    between atoms: _388  and  _389
REMARK  160  A    between atoms: _392  and  _394
REMARK  161  A    between atoms: _394  and  _395
REMARK  162  A    between atoms: _394  and  _397
REMARK  163  A    between atoms: _397  and  _398
REMARK  164  A    between atoms: _401  and  _403
REMARK  165  A    between atoms: _403  and  _404
REMARK  166  A    between atoms: _403  and  _406
REMARK  167  A    between atoms: _406  and  _407
REMARK  168  A    between atoms: _407  and  _408
REMARK  169  A    between atoms: _411  and  _413
REMARK  170  A    between atoms: _413  and  _414
REMARK  171  A    between atoms: _413  and  _416
REMARK  172  A    between atoms: _416  and  _417
REMARK  173  A    between atoms: _417  and  _418
REMARK  174  A    between atoms: _421  and  _423
REMARK  175  A    between atoms: _423  and  _424
REMARK  176  A    between atoms: _423  and  _426
REMARK  177  A    between atoms: _426  and  _427
REMARK  178  A    between atoms: _432  and  _434
REMARK  179  A    between atoms: _434  and  _435
REMARK  180  A    between atoms: _434  and  _437
REMARK  181  A    between atoms: _437  and  _438
REMARK                            x       y       z     vdW  Elec       q    Type
REMARK                         _______ _______ _______ _____ _____    ______ ____
ROOT
ATOM      1  O   HOH     1       2.029   5.720   3.632  0.00  0.00    +0.000 OA
ENDROOT
TORSDOF 0
REMARK  Name = ../refined-set-2016/3bex/3bex_pocket.pdb
REMARK  181 active torsions:
REMARK  status: ('A' for Active; 'I' for Inactive)
REMARK    1  A    between atoms: _1  and  _3
REMARK    2  A    between atoms: _3  and  _4
REMARK    3  A    between atoms: _3  and  _6
REMARK    4  A    between atoms: _6  and  _7
REMARK    5  A    between atoms: _10  and  _12
REMARK    6  A    between atoms: _12  and  _13
REMARK    7  A    between atoms: _12  and  _15
REMARK    8  A    between atoms: _18  and  _20
REMARK    9  A    between atoms: _20  and  _21
REMARK   10  A    between atoms: _23  and  _25
REMARK   11  A    between atoms: _25  and  _26
REMARK   12  A    between atoms: _25  and  _28
REMARK   13  A    between atoms: _28  and  _29
REMARK   14  A    between atoms: _34  and  _36
REMARK   15  A    between atoms: _36  and  _37
REMARK   16  A    between atoms: _36  and  _39
REMARK   17  A    between atoms: _39  and  _40
REMARK   18  A    between atoms: _43  and  _45
REMARK   19  A    between atoms: _45  and  _46
REMARK   20  A    between atoms: _45  and  _48
REMARK   21  A    between atoms: _48  and  _49
REMARK   22  A    between atoms: _51  and  _53
REMARK   23  A    between atoms: _53  and  _54
REMARK   24  A    between atoms: _53  and  _56
REMARK   25  A    between atoms: _59  and  _61
REMARK   26  A    between atoms: _61  and  _62
REMARK   27  A    between atoms: _61  and  _64
REMARK   28  A    between atoms: _68  and  _69
REMARK   29  A    between atoms: _74  and  _76
REMARK   30  A    between atoms: _76  and  _77
REMARK   31  A    between atoms: _76  and  _79
REMARK   32  A    between atoms: _82  and  _84
REMARK   33  A    between atoms: _84  and  _85
REMARK   34  A    between atoms: _84  and  _87
REMARK   35  A    between atoms: _87  and  _88
REMARK   36  A    between atoms: _94  and  _95
REMARK   37  A    between atoms: _100  and  _102
REMARK   38  A    between atoms: _102  and  _103
REMARK   39  A    between atoms: _102  and  _105
REMARK   40  A    between atoms: _105  and  _106
REMARK   41  A    between atoms: _108  and  _110
REMARK   42  A    between atoms: _110  and  _111
REMARK   43  A    between atoms: _110  and  _113
REMARK   44  A    between atoms: _113  and  _114
REMARK   45  A    between atoms: _114  and  _115
REMARK   46  A    between atoms: _118  and  _120
REMARK   47  A    between atoms: _120  and  _121
REMARK   48  A    between atoms: _120  and  _123
REMARK   49  A    between atoms: _126  and  _128
REMARK   50  A    between atoms: _128  and  _129
REMARK   51  A    between atoms: _131  and  _133
REMARK   52  A    between atoms: _133  and  _134
REMARK   53  A    between atoms: _137  and  _139
REMARK   54  A    between atoms: _139  and  _140
REMARK   55  A    between atoms: _139  and  _142
REMARK   56  A    between atoms: _142  and  _143
REMARK   57  A    between atoms: _146  and  _148
REMARK   58  A    between atoms: _148  and  _149
REMARK   59  A    between atoms: _148  and  _151
REMARK   60  A    between atoms: _151  and  _152
REMARK   61  A    between atoms: _152  and  _153
REMARK   62  A    between atoms: _153  and  _154
REMARK   63  A    between atoms: _163  and  _165
REMARK   64  A    between atoms: _165  and  _166
REMARK   65  A    between atoms: _165  and  _168
REMARK   66  A    between atoms: _171  and  _173
REMARK   67  A    between atoms: _173  and  _174
REMARK   68  A    between atoms: _173  and  _176
REMARK   69  A    between atoms: _176  and  _177
REMARK   70  A    between atoms: _182  and  _184
REMARK   71  A    between atoms: _184  and  _185
REMARK   72  A    between atoms: _184  and  _187
REMARK   73  A    between atoms: _187  and  _188
REMARK   74  A    between atoms: _191  and  _193
REMARK   75  A    between atoms: _193  and  _194
REMARK   76  A    between atoms: _196  and  _198
REMARK   77  A    between atoms: _198  and  _199
REMARK   78  A    between atoms: _198  and  _201
REMARK   79  A    between atoms: _201  and  _202
REMARK   80  A    between atoms: _205  and  _207
REMARK   81  A    between atoms: _207  and  _208
REMARK   82  A    between atoms: _211  and  _213
REMARK   83  A    between atoms: _213  and  _214
REMARK   84  A    between atoms: _213  and  _216
REMARK   85  A    between atoms: _216  and  _217
REMARK   86  A    between atoms: _220  and  _222
REMARK   87  A    between atoms: _222  and  _223
REMARK   88  A    between atoms: _222  and  _225
REMARK   89  A    between atoms: _225  and  _226
REMARK   90  A    between atoms: _229  and  _231
REMARK   91  A    between atoms: _231  and  _232
REMARK   92  A    between atoms: _231  and  _234
REMARK   93  A    between atoms: _237  and  _239
REMARK   94  A    between atoms: _239  and  _240
REMARK   95  A    between atoms: _239  and  _242
REMARK   96  A    between atoms: _242  and  _243
REMARK   97  A    between atoms: _246  and  _248
REMARK   98  A    between atoms: _248  and  _249
REMARK   99  A    between atoms: _248  and  _251
REMARK  100  A    between atoms: _251  and  _252
REMARK  101  A    between atoms: _257  and  _258
REMARK  102  A    between atoms: _260  and  _262
REMARK  103  A    between atoms: _262  and  _263
REMARK  104  A    between atoms: _265  and  _267
REMARK  105  A    between atoms: _267  and  _268
REMARK  106  A    between atoms: _271  and  _273
REMARK  107  A    between atoms: _273  and  _274
REMARK  108  A    between atoms: _273  and  _276
REMARK  109  A    between atoms: _276  and  _277
REMARK  110  A    between atoms: _280  and  _282
REMARK  111  A    between atoms: _282  and  _283
REMARK  112  A    between atoms: _282  and  _285
REMARK  113  A    between atoms: _285  and  _286
REMARK  114  A    between atoms: _289  and  _291
REMARK  115  A    between atoms: _291  and  _292
REMARK  116  A    between atoms: _291  and  _294
REMARK  117  A    between atoms: _294  and  _295
REMARK  118  A    between atoms: _295  and  _296
REMARK  119  A    between atoms: _298  and  _300
REMARK  120  A    between atoms: _300  and  _301
REMARK  121  A    between atoms: _300  and  _303
REMARK  122  A    between atoms: _303  and  _304
REMARK  123  A    between atoms: _307  and  _309
REMARK  124  A    between atoms: _309  and  _310
REMARK  125  A    between atoms: _309  and  _312
REMARK  126  A    between atoms: _312  and  _313
REMARK  127  A    between atoms: _316  and  _318
REMARK  128  A    between atoms: _318  and  _319
REMARK  129  A    between atoms: _321  and  _323
REMARK  130  A    between atoms: _323  and  _324
REMARK  131  A    between atoms: _323  and  _326
REMARK  132  A    between atoms: _326  and  _327
REMARK  133  A    between atoms: _330  and  _332
REMARK  134  A    between atoms: _332  and  _333
REMARK  135  A    between atoms: _336  and  _338
REMARK  136  A    between atoms: _338  and  _339
REMARK  137  A    between atoms: _338  and  _341
REMARK  138  A    between atoms: _341  and  _342
REMARK  139  A    between atoms: _342  and  _343
REMARK  140  A    between atoms: _343  and  _344
REMARK  141  A    between atoms: _344  and  _345
REMARK  142  A    between atoms: _349  and  _351
REMARK  143  A    between atoms: _351  and  _352
REMARK  144  A    between atoms: _351  and  _354
REMARK  145  A    between atoms: _354  and  _355
REMARK  146  A    between atoms: _359  and  _360
REMARK  147  A    between atoms: _365  and  _367
REMARK  148  A    between atoms: _367  and  _368
REMARK  149  A    between atoms: _370  and  _372
REMARK  150  A    between atoms: _372  and  _373
REMARK  151  A    between atoms: _372  and  _375
REMARK  152  A    between atoms: _375  and  _376
REMARK  153  A    between atoms: _376  and  _377
REMARK  154  A    between atoms: _377  and  _378
REMARK  155  A    between atoms: _378  and  _379
REMARK  156  A    between atoms: _383  and  _385
REMARK  157  A    between atoms: _385  and  _386
REMARK  158  A    between atoms: _385  and  _388
REMARK  159  A    between atoms: _388  and  _389
REMARK  160  A    between atoms: _392  and  _394
REMARK  161  A    between atoms: _394  and  _395
REMARK  162  A    between atoms: _394  and  _397
REMARK  163  A    between atoms: _397  and  _398
REMARK  164  A    between atoms: _401  and  _403
REMARK  165  A    between atoms: _403  and  _404
REMARK  166  A    between atoms: _403  and  _406
REMARK  167  A    between atoms: _406  and  _407
REMARK  168  A    between atoms: _407  and  _408
REMARK  169  A    between atoms: _411  and  _413
REMARK  170  A    between atoms: _413  and  _414
REMARK  171  A    between atoms: _413  and  _416
REMARK  172  A    between atoms: _416  and  _417
REMARK  173  A    between atoms: _417  and  _418
REMARK  174  A    between atoms: _421  and  _423
REMARK  175  A    between atoms: _423  and  _424
REMARK  176  A    between atoms: _423  and  _426
REMARK  177  A    between atoms: _426  and  _427
REMARK  178  A    between atoms: _432  and  _434
REMARK  179  A    between atoms: _434  and  _435
REMARK  180  A    between atoms: _434  and  _437
REMARK  181  A    between atoms: _437  and  _438
REMARK                            x       y       z     vdW  Elec       q    Type
REMARK                         _______ _______ _______ _____ _____    ______ ____
ROOT
ATOM      1  O   HOH     1       0.072  17.992  20.158  0.00  0.00    +0.000 OA
ENDROOT
TORSDOF 0
REMARK  Name = ../refined-set-2016/3bex/3bex_pocket.pdb
REMARK  181 active torsions:
REMARK  status: ('A' for Active; 'I' for Inactive)
REMARK    1  A    between atoms: _1  and  _3
REMARK    2  A    between atoms: _3  and  _4
REMARK    3  A    between atoms: _3  and  _6
REMARK    4  A    between atoms: _6  and  _7
REMARK    5  A    between atoms: _10  and  _12
REMARK    6  A    between atoms: _12  and  _13
REMARK    7  A    between atoms: _12  and  _15
REMARK    8  A    between atoms: _18  and  _20
REMARK    9  A    between atoms: _20  and  _21
REMARK   10  A    between atoms: _23  and  _25
REMARK   11  A    between atoms: _25  and  _26
REMARK   12  A    between atoms: _25  and  _28
REMARK   13  A    between atoms: _28  and  _29
REMARK   14  A    between atoms: _34  and  _36
REMARK   15  A    between atoms: _36  and  _37
REMARK   16  A    between atoms: _36  and  _39
REMARK   17  A    between atoms: _39  and  _40
REMARK   18  A    between atoms: _43  and  _45
REMARK   19  A    between atoms: _45  and  _46
REMARK   20  A    between atoms: _45  and  _48
REMARK   21  A    between atoms: _48  and  _49
REMARK   22  A    between atoms: _51  and  _53
REMARK   23  A    between atoms: _53  and  _54
REMARK   24  A    between atoms: _53  and  _56
REMARK   25  A    between atoms: _59  and  _61
REMARK   26  A    between atoms: _61  and  _62
REMARK   27  A    between atoms: _61  and  _64
REMARK   28  A    between atoms: _68  and  _69
REMARK   29  A    between atoms: _74  and  _76
REMARK   30  A    between atoms: _76  and  _77
REMARK   31  A    between atoms: _76  and  _79
REMARK   32  A    between atoms: _82  and  _84
REMARK   33  A    between atoms: _84  and  _85
REMARK   34  A    between atoms: _84  and  _87
REMARK   35  A    between atoms: _87  and  _88
REMARK   36  A    between atoms: _94  and  _95
REMARK   37  A    between atoms: _100  and  _102
REMARK   38  A    between atoms: _102  and  _103
REMARK   39  A    between atoms: _102  and  _105
REMARK   40  A    between atoms: _105  and  _106
REMARK   41  A    between atoms: _108  and  _110
REMARK   42  A    between atoms: _110  and  _111
REMARK   43  A    between atoms: _110  and  _113
REMARK   44  A    between atoms: _113  and  _114
REMARK   45  A    between atoms: _114  and  _115
REMARK   46  A    between atoms: _118  and  _120
REMARK   47  A    between atoms: _120  and  _121
REMARK   48  A    between atoms: _120  and  _123
REMARK   49  A    between atoms: _126  and  _128
REMARK   50  A    between atoms: _128  and  _129
REMARK   51  A    between atoms: _131  and  _133
REMARK   52  A    between atoms: _133  and  _134
REMARK   53  A    between atoms: _137  and  _139
REMARK   54  A    between atoms: _139  and  _140
REMARK   55  A    between atoms: _139  and  _142
REMARK   56  A    between atoms: _142  and  _143
REMARK   57  A    between atoms: _146  and  _148
REMARK   58  A    between atoms: _148  and  _149
REMARK   59  A    between atoms: _148  and  _151
REMARK   60  A    between atoms: _151  and  _152
REMARK   61  A    between atoms: _152  and  _153
REMARK   62  A    between atoms: _153  and  _154
REMARK   63  A    between atoms: _163  and  _165
REMARK   64  A    between atoms: _165  and  _166
REMARK   65  A    between atoms: _165  and  _168
REMARK   66  A    between atoms: _171  and  _173
REMARK   67  A    between atoms: _173  and  _174
REMARK   68  A    between atoms: _173  and  _176
REMARK   69  A    between atoms: _176  and  _177
REMARK   70  A    between atoms: _182  and  _184
REMARK   71  A    between atoms: _184  and  _185
REMARK   72  A    between atoms: _184  and  _187
REMARK   73  A    between atoms: _187  and  _188
REMARK   74  A    between atoms: _191  and  _193
REMARK   75  A    between atoms: _193  and  _194
REMARK   76  A    between atoms: _196  and  _198
REMARK   77  A    between atoms: _198  and  _199
REMARK   78  A    between atoms: _198  and  _201
REMARK   79  A    between atoms: _201  and  _202
REMARK   80  A    between atoms: _205  and  _207
REMARK   81  A    between atoms: _207  and  _208
REMARK   82  A    between atoms: _211  and  _213
REMARK   83  A    between atoms: _213  and  _214
REMARK   84  A    between atoms: _213  and  _216
REMARK   85  A    between atoms: _216  and  _217
REMARK   86  A    between atoms: _220  and  _222
REMARK   87  A    between atoms: _222  and  _223
REMARK   88  A    between atoms: _222  and  _225
REMARK   89  A    between atoms: _225  and  _226
REMARK   90  A    between atoms: _229  and  _231
REMARK   91  A    between atoms: _231  and  _232
REMARK   92  A    between atoms: _231  and  _234
REMARK   93  A    between atoms: _237  and  _239
REMARK   94  A    between atoms: _239  and  _240
REMARK   95  A    between atoms: _239  and  _242
REMARK   96  A    between atoms: _242  and  _243
REMARK   97  A    between atoms: _246  and  _248
REMARK   98  A    between atoms: _248  and  _249
REMARK   99  A    between atoms: _248  and  _251
REMARK  100  A    between atoms: _251  and  _252
REMARK  101  A    between atoms: _257  and  _258
REMARK  102  A    between atoms: _260  and  _262
REMARK  103  A    between atoms: _262  and  _263
REMARK  104  A    between atoms: _265  and  _267
REMARK  105  A    between atoms: _267  and  _268
REMARK  106  A    between atoms: _271  and  _273
REMARK  107  A    between atoms: _273  and  _274
REMARK  108  A    between atoms: _273  and  _276
REMARK  109  A    between atoms: _276  and  _277
REMARK  110  A    between atoms: _280  and  _282
REMARK  111  A    between atoms: _282  and  _283
REMARK  112  A    between atoms: _282  and  _285
REMARK  113  A    between atoms: _285  and  _286
REMARK  114  A    between atoms: _289  and  _291
REMARK  115  A    between atoms: _291  and  _292
REMARK  116  A    between atoms: _291  and  _294
REMARK  117  A    between atoms: _294  and  _295
REMARK  118  A    between atoms: _295  and  _296
REMARK  119  A    between atoms: _298  and  _300
REMARK  120  A    between atoms: _300  and  _301
REMARK  121  A    between atoms: _300  and  _303
REMARK  122  A    between atoms: _303  and  _304
REMARK  123  A    between atoms: _307  and  _309
REMARK  124  A    between atoms: _309  and  _310
REMARK  125  A    between atoms: _309  and  _312
REMARK  126  A    between atoms: _312  and  _313
REMARK  127  A    between atoms: _316  and  _318
REMARK  128  A    between atoms: _318  and  _319
REMARK  129  A    between atoms: _321  and  _323
REMARK  130  A    between atoms: _323  and  _324
REMARK  131  A    between atoms: _323  and  _326
REMARK  132  A    between atoms: _326  and  _327
REMARK  133  A    between atoms: _330  and  _332
REMARK  134  A    between atoms: _332  and  _333
REMARK  135  A    between atoms: _336  and  _338
REMARK  136  A    between atoms: _338  and  _339
REMARK  137  A    between atoms: _338  and  _341
REMARK  138  A    between atoms: _341  and  _342
REMARK  139  A    between atoms: _342  and  _343
REMARK  140  A    between atoms: _343  and  _344
REMARK  141  A    between atoms: _344  and  _345
REMARK  142  A    between atoms: _349  and  _351
REMARK  143  A    between atoms: _351  and  _352
REMARK  144  A    between atoms: _351  and  _354
REMARK  145  A    between atoms: _354  and  _355
REMARK  146  A    between atoms: _359  and  _360
REMARK  147  A    between atoms: _365  and  _367
REMARK  148  A    between atoms: _367  and  _368
REMARK  149  A    between atoms: _370  and  _372
REMARK  150  A    between atoms: _372  and  _373
REMARK  151  A    between atoms: _372  and  _375
REMARK  152  A    between atoms: _375  and  _376
REMARK  153  A    between atoms: _376  and  _377
REMARK  154  A    between atoms: _377  and  _378
REMARK  155  A    between atoms: _378  and  _379
REMARK  156  A    between atoms: _383  and  _385
REMARK  157  A    between atoms: _385  and  _386
REMARK  158  A    between atoms: _385  and  _388
REMARK  159  A    between atoms: _388  and  _389
REMARK  160  A    between atoms: _392  and  _394
REMARK  161  A    between atoms: _394  and  _395
REMARK  162  A    between atoms: _394  and  _397
REMARK  163  A    between atoms: _397  and  _398
REMARK  164  A    between atoms: _401  and  _403
REMARK  165  A    between atoms: _403  and  _404
REMARK  166  A    between atoms: _403  and  _406
REMARK  167  A    between atoms: _406  and  _407
REMARK  168  A    between atoms: _407  and  _408
REMARK  169  A    between atoms: _411  and  _413
REMARK  170  A    between atoms: _413  and  _414
REMARK  171  A    between atoms: _413  and  _416
REMARK  172  A    between atoms: _416  and  _417
REMARK  173  A    between atoms: _417  and  _418
REMARK  174  A    between atoms: _421  and  _423
REMARK  175  A    between atoms: _423  and  _424
REMARK  176  A    between atoms: _423  and  _426
REMARK  177  A    between atoms: _426  and  _427
REMARK  178  A    between atoms: _432  and  _434
REMARK  179  A    between atoms: _434  and  _435
REMARK  180  A    between atoms: _434  and  _437
REMARK  181  A    between atoms: _437  and  _438
REMARK                            x       y       z     vdW  Elec       q    Type
REMARK                         _______ _______ _______ _____ _____    ______ ____
ROOT
ATOM      1  O   HOH     1      -4.787   9.627  13.258  0.00  0.00    +0.000 OA
ENDROOT
TORSDOF 0
REMARK  Name = ../refined-set-2016/3bex/3bex_pocket.pdb
REMARK  181 active torsions:
REMARK  status: ('A' for Active; 'I' for Inactive)
REMARK    1  A    between atoms: _1  and  _3
REMARK    2  A    between atoms: _3  and  _4
REMARK    3  A    between atoms: _3  and  _6
REMARK    4  A    between atoms: _6  and  _7
REMARK    5  A    between atoms: _10  and  _12
REMARK    6  A    between atoms: _12  and  _13
REMARK    7  A    between atoms: _12  and  _15
REMARK    8  A    between atoms: _18  and  _20
REMARK    9  A    between atoms: _20  and  _21
REMARK   10  A    between atoms: _23  and  _25
REMARK   11  A    between atoms: _25  and  _26
REMARK   12  A    between atoms: _25  and  _28
REMARK   13  A    between atoms: _28  and  _29
REMARK   14  A    between atoms: _34  and  _36
REMARK   15  A    between atoms: _36  and  _37
REMARK   16  A    between atoms: _36  and  _39
REMARK   17  A    between atoms: _39  and  _40
REMARK   18  A    between atoms: _43  and  _45
REMARK   19  A    between atoms: _45  and  _46
REMARK   20  A    between atoms: _45  and  _48
REMARK   21  A    between atoms: _48  and  _49
REMARK   22  A    between atoms: _51  and  _53
REMARK   23  A    between atoms: _53  and  _54
REMARK   24  A    between atoms: _53  and  _56
REMARK   25  A    between atoms: _59  and  _61
REMARK   26  A    between atoms: _61  and  _62
REMARK   27  A    between atoms: _61  and  _64
REMARK   28  A    between atoms: _68  and  _69
REMARK   29  A    between atoms: _74  and  _76
REMARK   30  A    between atoms: _76  and  _77
REMARK   31  A    between atoms: _76  and  _79
REMARK   32  A    between atoms: _82  and  _84
REMARK   33  A    between atoms: _84  and  _85
REMARK   34  A    between atoms: _84  and  _87
REMARK   35  A    between atoms: _87  and  _88
REMARK   36  A    between atoms: _94  and  _95
REMARK   37  A    between atoms: _100  and  _102
REMARK   38  A    between atoms: _102  and  _103
REMARK   39  A    between atoms: _102  and  _105
REMARK   40  A    between atoms: _105  and  _106
REMARK   41  A    between atoms: _108  and  _110
REMARK   42  A    between atoms: _110  and  _111
REMARK   43  A    between atoms: _110  and  _113
REMARK   44  A    between atoms: _113  and  _114
REMARK   45  A    between atoms: _114  and  _115
REMARK   46  A    between atoms: _118  and  _120
REMARK   47  A    between atoms: _120  and  _121
REMARK   48  A    between atoms: _120  and  _123
REMARK   49  A    between atoms: _126  and  _128
REMARK   50  A    between atoms: _128  and  _129
REMARK   51  A    between atoms: _131  and  _133
REMARK   52  A    between atoms: _133  and  _134
REMARK   53  A    between atoms: _137  and  _139
REMARK   54  A    between atoms: _139  and  _140
REMARK   55  A    between atoms: _139  and  _142
REMARK   56  A    between atoms: _142  and  _143
REMARK   57  A    between atoms: _146  and  _148
REMARK   58  A    between atoms: _148  and  _149
REMARK   59  A    between atoms: _148  and  _151
REMARK   60  A    between atoms: _151  and  _152
REMARK   61  A    between atoms: _152  and  _153
REMARK   62  A    between atoms: _153  and  _154
REMARK   63  A    between atoms: _163  and  _165
REMARK   64  A    between atoms: _165  and  _166
REMARK   65  A    between atoms: _165  and  _168
REMARK   66  A    between atoms: _171  and  _173
REMARK   67  A    between atoms: _173  and  _174
REMARK   68  A    between atoms: _173  and  _176
REMARK   69  A    between atoms: _176  and  _177
REMARK   70  A    between atoms: _182  and  _184
REMARK   71  A    between atoms: _184  and  _185
REMARK   72  A    between atoms: _184  and  _187
REMARK   73  A    between atoms: _187  and  _188
REMARK   74  A    between atoms: _191  and  _193
REMARK   75  A    between atoms: _193  and  _194
REMARK   76  A    between atoms: _196  and  _198
REMARK   77  A    between atoms: _198  and  _199
REMARK   78  A    between atoms: _198  and  _201
REMARK   79  A    between atoms: _201  and  _202
REMARK   80  A    between atoms: _205  and  _207
REMARK   81  A    between atoms: _207  and  _208
REMARK   82  A    between atoms: _211  and  _213
REMARK   83  A    between atoms: _213  and  _214
REMARK   84  A    between atoms: _213  and  _216
REMARK   85  A    between atoms: _216  and  _217
REMARK   86  A    between atoms: _220  and  _222
REMARK   87  A    between atoms: _222  and  _223
REMARK   88  A    between atoms: _222  and  _225
REMARK   89  A    between atoms: _225  and  _226
REMARK   90  A    between atoms: _229  and  _231
REMARK   91  A    between atoms: _231  and  _232
REMARK   92  A    between atoms: _231  and  _234
REMARK   93  A    between atoms: _237  and  _239
REMARK   94  A    between atoms: _239  and  _240
REMARK   95  A    between atoms: _239  and  _242
REMARK   96  A    between atoms: _242  and  _243
REMARK   97  A    between atoms: _246  and  _248
REMARK   98  A    between atoms: _248  and  _249
REMARK   99  A    between atoms: _248  and  _251
REMARK  100  A    between atoms: _251  and  _252
REMARK  101  A    between atoms: _257  and  _258
REMARK  102  A    between atoms: _260  and  _262
REMARK  103  A    between atoms: _262  and  _263
REMARK  104  A    between atoms: _265  and  _267
REMARK  105  A    between atoms: _267  and  _268
REMARK  106  A    between atoms: _271  and  _273
REMARK  107  A    between atoms: _273  and  _274
REMARK  108  A    between atoms: _273  and  _276
REMARK  109  A    between atoms: _276  and  _277
REMARK  110  A    between atoms: _280  and  _282
REMARK  111  A    between atoms: _282  and  _283
REMARK  112  A    between atoms: _282  and  _285
REMARK  113  A    between atoms: _285  and  _286
REMARK  114  A    between atoms: _289  and  _291
REMARK  115  A    between atoms: _291  and  _292
REMARK  116  A    between atoms: _291  and  _294
REMARK  117  A    between atoms: _294  and  _295
REMARK  118  A    between atoms: _295  and  _296
REMARK  119  A    between atoms: _298  and  _300
REMARK  120  A    between atoms: _300  and  _301
REMARK  121  A    between atoms: _300  and  _303
REMARK  122  A    between atoms: _303  and  _304
REMARK  123  A    between atoms: _307  and  _309
REMARK  124  A    between atoms: _309  and  _310
REMARK  125  A    between atoms: _309  and  _312
REMARK  126  A    between atoms: _312  and  _313
REMARK  127  A    between atoms: _316  and  _318
REMARK  128  A    between atoms: _318  and  _319
REMARK  129  A    between atoms: _321  and  _323
REMARK  130  A    between atoms: _323  and  _324
REMARK  131  A    between atoms: _323  and  _326
REMARK  132  A    between atoms: _326  and  _327
REMARK  133  A    between atoms: _330  and  _332
REMARK  134  A    between atoms: _332  and  _333
REMARK  135  A    between atoms: _336  and  _338
REMARK  136  A    between atoms: _338  and  _339
REMARK  137  A    between atoms: _338  and  _341
REMARK  138  A    between atoms: _341  and  _342
REMARK  139  A    between atoms: _342  and  _343
REMARK  140  A    between atoms: _343  and  _344
REMARK  141  A    between atoms: _344  and  _345
REMARK  142  A    between atoms: _349  and  _351
REMARK  143  A    between atoms: _351  and  _352
REMARK  144  A    between atoms: _351  and  _354
REMARK  145  A    between atoms: _354  and  _355
REMARK  146  A    between atoms: _359  and  _360
REMARK  147  A    between atoms: _365  and  _367
REMARK  148  A    between atoms: _367  and  _368
REMARK  149  A    between atoms: _370  and  _372
REMARK  150  A    between atoms: _372  and  _373
REMARK  151  A    between atoms: _372  and  _375
REMARK  152  A    between atoms: _375  and  _376
REMARK  153  A    between atoms: _376  and  _377
REMARK  154  A    between atoms: _377  and  _378
REMARK  155  A    between atoms: _378  and  _379
REMARK  156  A    between atoms: _383  and  _385
REMARK  157  A    between atoms: _385  and  _386
REMARK  158  A    between atoms: _385  and  _388
REMARK  159  A    between atoms: _388  and  _389
REMARK  160  A    between atoms: _392  and  _394
REMARK  161  A    between atoms: _394  and  _395
REMARK  162  A    between atoms: _394  and  _397
REMARK  163  A    between atoms: _397  and  _398
REMARK  164  A    between atoms: _401  and  _403
REMARK  165  A    between atoms: _403  and  _404
REMARK  166  A    between atoms: _403  and  _406
REMARK  167  A    between atoms: _406  and  _407
REMARK  168  A    between atoms: _407  and  _408
REMARK  169  A    between atoms: _411  and  _413
REMARK  170  A    between atoms: _413  and  _414
REMARK  171  A    between atoms: _413  and  _416
REMARK  172  A    between atoms: _416  and  _417
REMARK  173  A    between atoms: _417  and  _418
REMARK  174  A    between atoms: _421  and  _423
REMARK  175  A    between atoms: _423  and  _424
REMARK  176  A    between atoms: _423  and  _426
REMARK  177  A    between atoms: _426  and  _427
REMARK  178  A    between atoms: _432  and  _434
REMARK  179  A    between atoms: _434  and  _435
REMARK  180  A    between atoms: _434  and  _437
REMARK  181  A    between atoms: _437  and  _438
REMARK                            x       y       z     vdW  Elec       q    Type
REMARK                         _______ _______ _______ _____ _____    ______ ____
ROOT
ATOM      1  O   HOH     1       1.189  18.695  14.107  0.00  0.00    +0.000 OA
ENDROOT
TORSDOF 0
REMARK  Name = ../refined-set-2016/3bex/3bex_pocket.pdb
REMARK  181 active torsions:
REMARK  status: ('A' for Active; 'I' for Inactive)
REMARK    1  A    between atoms: _1  and  _3
REMARK    2  A    between atoms: _3  and  _4
REMARK    3  A    between atoms: _3  and  _6
REMARK    4  A    between atoms: _6  and  _7
REMARK    5  A    between atoms: _10  and  _12
REMARK    6  A    between atoms: _12  and  _13
REMARK    7  A    between atoms: _12  and  _15
REMARK    8  A    between atoms: _18  and  _20
REMARK    9  A    between atoms: _20  and  _21
REMARK   10  A    between atoms: _23  and  _25
REMARK   11  A    between atoms: _25  and  _26
REMARK   12  A    between atoms: _25  and  _28
REMARK   13  A    between atoms: _28  and  _29
REMARK   14  A    between atoms: _34  and  _36
REMARK   15  A    between atoms: _36  and  _37
REMARK   16  A    between atoms: _36  and  _39
REMARK   17  A    between atoms: _39  and  _40
REMARK   18  A    between atoms: _43  and  _45
REMARK   19  A    between atoms: _45  and  _46
REMARK   20  A    between atoms: _45  and  _48
REMARK   21  A    between atoms: _48  and  _49
REMARK   22  A    between atoms: _51  and  _53
REMARK   23  A    between atoms: _53  and  _54
REMARK   24  A    between atoms: _53  and  _56
REMARK   25  A    between atoms: _59  and  _61
REMARK   26  A    between atoms: _61  and  _62
REMARK   27  A    between atoms: _61  and  _64
REMARK   28  A    between atoms: _68  and  _69
REMARK   29  A    between atoms: _74  and  _76
REMARK   30  A    between atoms: _76  and  _77
REMARK   31  A    between atoms: _76  and  _79
REMARK   32  A    between atoms: _82  and  _84
REMARK   33  A    between atoms: _84  and  _85
REMARK   34  A    between atoms: _84  and  _87
REMARK   35  A    between atoms: _87  and  _88
REMARK   36  A    between atoms: _94  and  _95
REMARK   37  A    between atoms: _100  and  _102
REMARK   38  A    between atoms: _102  and  _103
REMARK   39  A    between atoms: _102  and  _105
REMARK   40  A    between atoms: _105  and  _106
REMARK   41  A    between atoms: _108  and  _110
REMARK   42  A    between atoms: _110  and  _111
REMARK   43  A    between atoms: _110  and  _113
REMARK   44  A    between atoms: _113  and  _114
REMARK   45  A    between atoms: _114  and  _115
REMARK   46  A    between atoms: _118  and  _120
REMARK   47  A    between atoms: _120  and  _121
REMARK   48  A    between atoms: _120  and  _123
REMARK   49  A    between atoms: _126  and  _128
REMARK   50  A    between atoms: _128  and  _129
REMARK   51  A    between atoms: _131  and  _133
REMARK   52  A    between atoms: _133  and  _134
REMARK   53  A    between atoms: _137  and  _139
REMARK   54  A    between atoms: _139  and  _140
REMARK   55  A    between atoms: _139  and  _142
REMARK   56  A    between atoms: _142  and  _143
REMARK   57  A    between atoms: _146  and  _148
REMARK   58  A    between atoms: _148  and  _149
REMARK   59  A    between atoms: _148  and  _151
REMARK   60  A    between atoms: _151  and  _152
REMARK   61  A    between atoms: _152  and  _153
REMARK   62  A    between atoms: _153  and  _154
REMARK   63  A    between atoms: _163  and  _165
REMARK   64  A    between atoms: _165  and  _166
REMARK   65  A    between atoms: _165  and  _168
REMARK   66  A    between atoms: _171  and  _173
REMARK   67  A    between atoms: _173  and  _174
REMARK   68  A    between atoms: _173  and  _176
REMARK   69  A    between atoms: _176  and  _177
REMARK   70  A    between atoms: _182  and  _184
REMARK   71  A    between atoms: _184  and  _185
REMARK   72  A    between atoms: _184  and  _187
REMARK   73  A    between atoms: _187  and  _188
REMARK   74  A    between atoms: _191  and  _193
REMARK   75  A    between atoms: _193  and  _194
REMARK   76  A    between atoms: _196  and  _198
REMARK   77  A    between atoms: _198  and  _199
REMARK   78  A    between atoms: _198  and  _201
REMARK   79  A    between atoms: _201  and  _202
REMARK   80  A    between atoms: _205  and  _207
REMARK   81  A    between atoms: _207  and  _208
REMARK   82  A    between atoms: _211  and  _213
REMARK   83  A    between atoms: _213  and  _214
REMARK   84  A    between atoms: _213  and  _216
REMARK   85  A    between atoms: _216  and  _217
REMARK   86  A    between atoms: _220  and  _222
REMARK   87  A    between atoms: _222  and  _223
REMARK   88  A    between atoms: _222  and  _225
REMARK   89  A    between atoms: _225  and  _226
REMARK   90  A    between atoms: _229  and  _231
REMARK   91  A    between atoms: _231  and  _232
REMARK   92  A    between atoms: _231  and  _234
REMARK   93  A    between atoms: _237  and  _239
REMARK   94  A    between atoms: _239  and  _240
REMARK   95  A    between atoms: _239  and  _242
REMARK   96  A    between atoms: _242  and  _243
REMARK   97  A    between atoms: _246  and  _248
REMARK   98  A    between atoms: _248  and  _249
REMARK   99  A    between atoms: _248  and  _251
REMARK  100  A    between atoms: _251  and  _252
REMARK  101  A    between atoms: _257  and  _258
REMARK  102  A    between atoms: _260  and  _262
REMARK  103  A    between atoms: _262  and  _263
REMARK  104  A    between atoms: _265  and  _267
REMARK  105  A    between atoms: _267  and  _268
REMARK  106  A    between atoms: _271  and  _273
REMARK  107  A    between atoms: _273  and  _274
REMARK  108  A    between atoms: _273  and  _276
REMARK  109  A    between atoms: _276  and  _277
REMARK  110  A    between atoms: _280  and  _282
REMARK  111  A    between atoms: _282  and  _283
REMARK  112  A    between atoms: _282  and  _285
REMARK  113  A    between atoms: _285  and  _286
REMARK  114  A    between atoms: _289  and  _291
REMARK  115  A    between atoms: _291  and  _292
REMARK  116  A    between atoms: _291  and  _294
REMARK  117  A    between atoms: _294  and  _295
REMARK  118  A    between atoms: _295  and  _296
REMARK  119  A    between atoms: _298  and  _300
REMARK  120  A    between atoms: _300  and  _301
REMARK  121  A    between atoms: _300  and  _303
REMARK  122  A    between atoms: _303  and  _304
REMARK  123  A    between atoms: _307  and  _309
REMARK  124  A    between atoms: _309  and  _310
REMARK  125  A    between atoms: _309  and  _312
REMARK  126  A    between atoms: _312  and  _313
REMARK  127  A    between atoms: _316  and  _318
REMARK  128  A    between atoms: _318  and  _319
REMARK  129  A    between atoms: _321  and  _323
REMARK  130  A    between atoms: _323  and  _324
REMARK  131  A    between atoms: _323  and  _326
REMARK  132  A    between atoms: _326  and  _327
REMARK  133  A    between atoms: _330  and  _332
REMARK  134  A    between atoms: _332  and  _333
REMARK  135  A    between atoms: _336  and  _338
REMARK  136  A    between atoms: _338  and  _339
REMARK  137  A    between atoms: _338  and  _341
REMARK  138  A    between atoms: _341  and  _342
REMARK  139  A    between atoms: _342  and  _343
REMARK  140  A    between atoms: _343  and  _344
REMARK  141  A    between atoms: _344  and  _345
REMARK  142  A    between atoms: _349  and  _351
REMARK  143  A    between atoms: _351  and  _352
REMARK  144  A    between atoms: _351  and  _354
REMARK  145  A    between atoms: _354  and  _355
REMARK  146  A    between atoms: _359  and  _360
REMARK  147  A    between atoms: _365  and  _367
REMARK  148  A    between atoms: _367  and  _368
REMARK  149  A    between atoms: _370  and  _372
REMARK  150  A    between atoms: _372  and  _373
REMARK  151  A    between atoms: _372  and  _375
REMARK  152  A    between atoms: _375  and  _376
REMARK  153  A    between atoms: _376  and  _377
REMARK  154  A    between atoms: _377  and  _378
REMARK  155  A    between atoms: _378  and  _379
REMARK  156  A    between atoms: _383  and  _385
REMARK  157  A    between atoms: _385  and  _386
REMARK  158  A    between atoms: _385  and  _388
REMARK  159  A    between atoms: _388  and  _389
REMARK  160  A    between atoms: _392  and  _394
REMARK  161  A    between atoms: _394  and  _395
REMARK  162  A    between atoms: _394  and  _397
REMARK  163  A    between atoms: _397  and  _398
REMARK  164  A    between atoms: _401  and  _403
REMARK  165  A    between atoms: _403  and  _404
REMARK  166  A    between atoms: _403  and  _406
REMARK  167  A    between atoms: _406  and  _407
REMARK  168  A    between atoms: _407  and  _408
REMARK  169  A    between atoms: _411  and  _413
REMARK  170  A    between atoms: _413  and  _414
REMARK  171  A    between atoms: _413  and  _416
REMARK  172  A    between atoms: _416  and  _417
REMARK  173  A    between atoms: _417  and  _418
REMARK  174  A    between atoms: _421  and  _423
REMARK  175  A    between atoms: _423  and  _424
REMARK  176  A    between atoms: _423  and  _426
REMARK  177  A    between atoms: _426  and  _427
REMARK  178  A    between atoms: _432  and  _434
REMARK  179  A    between atoms: _434  and  _435
REMARK  180  A    between atoms: _434  and  _437
REMARK  181  A    between atoms: _437  and  _438
REMARK                            x       y       z     vdW  Elec       q    Type
REMARK                         _______ _______ _______ _____ _____    ______ ____
ROOT
ATOM      1  O   HOH     1      -2.588   5.044  16.609  0.00  0.00    +0.000 OA
ENDROOT
TORSDOF 0
REMARK  Name = ../refined-set-2016/3bex/3bex_pocket.pdb
REMARK  181 active torsions:
REMARK  status: ('A' for Active; 'I' for Inactive)
REMARK    1  A    between atoms: _1  and  _3
REMARK    2  A    between atoms: _3  and  _4
REMARK    3  A    between atoms: _3  and  _6
REMARK    4  A    between atoms: _6  and  _7
REMARK    5  A    between atoms: _10  and  _12
REMARK    6  A    between atoms: _12  and  _13
REMARK    7  A    between atoms: _12  and  _15
REMARK    8  A    between atoms: _18  and  _20
REMARK    9  A    between atoms: _20  and  _21
REMARK   10  A    between atoms: _23  and  _25
REMARK   11  A    between atoms: _25  and  _26
REMARK   12  A    between atoms: _25  and  _28
REMARK   13  A    between atoms: _28  and  _29
REMARK   14  A    between atoms: _34  and  _36
REMARK   15  A    between atoms: _36  and  _37
REMARK   16  A    between atoms: _36  and  _39
REMARK   17  A    between atoms: _39  and  _40
REMARK   18  A    between atoms: _43  and  _45
REMARK   19  A    between atoms: _45  and  _46
REMARK   20  A    between atoms: _45  and  _48
REMARK   21  A    between atoms: _48  and  _49
REMARK   22  A    between atoms: _51  and  _53
REMARK   23  A    between atoms: _53  and  _54
REMARK   24  A    between atoms: _53  and  _56
REMARK   25  A    between atoms: _59  and  _61
REMARK   26  A    between atoms: _61  and  _62
REMARK   27  A    between atoms: _61  and  _64
REMARK   28  A    between atoms: _68  and  _69
REMARK   29  A    between atoms: _74  and  _76
REMARK   30  A    between atoms: _76  and  _77
REMARK   31  A    between atoms: _76  and  _79
REMARK   32  A    between atoms: _82  and  _84
REMARK   33  A    between atoms: _84  and  _85
REMARK   34  A    between atoms: _84  and  _87
REMARK   35  A    between atoms: _87  and  _88
REMARK   36  A    between atoms: _94  and  _95
REMARK   37  A    between atoms: _100  and  _102
REMARK   38  A    between atoms: _102  and  _103
REMARK   39  A    between atoms: _102  and  _105
REMARK   40  A    between atoms: _105  and  _106
REMARK   41  A    between atoms: _108  and  _110
REMARK   42  A    between atoms: _110  and  _111
REMARK   43  A    between atoms: _110  and  _113
REMARK   44  A    between atoms: _113  and  _114
REMARK   45  A    between atoms: _114  and  _115
REMARK   46  A    between atoms: _118  and  _120
REMARK   47  A    between atoms: _120  and  _121
REMARK   48  A    between atoms: _120  and  _123
REMARK   49  A    between atoms: _126  and  _128
REMARK   50  A    between atoms: _128  and  _129
REMARK   51  A    between atoms: _131  and  _133
REMARK   52  A    between atoms: _133  and  _134
REMARK   53  A    between atoms: _137  and  _139
REMARK   54  A    between atoms: _139  and  _140
REMARK   55  A    between atoms: _139  and  _142
REMARK   56  A    between atoms: _142  and  _143
REMARK   57  A    between atoms: _146  and  _148
REMARK   58  A    between atoms: _148  and  _149
REMARK   59  A    between atoms: _148  and  _151
REMARK   60  A    between atoms: _151  and  _152
REMARK   61  A    between atoms: _152  and  _153
REMARK   62  A    between atoms: _153  and  _154
REMARK   63  A    between atoms: _163  and  _165
REMARK   64  A    between atoms: _165  and  _166
REMARK   65  A    between atoms: _165  and  _168
REMARK   66  A    between atoms: _171  and  _173
REMARK   67  A    between atoms: _173  and  _174
REMARK   68  A    between atoms: _173  and  _176
REMARK   69  A    between atoms: _176  and  _177
REMARK   70  A    between atoms: _182  and  _184
REMARK   71  A    between atoms: _184  and  _185
REMARK   72  A    between atoms: _184  and  _187
REMARK   73  A    between atoms: _187  and  _188
REMARK   74  A    between atoms: _191  and  _193
REMARK   75  A    between atoms: _193  and  _194
REMARK   76  A    between atoms: _196  and  _198
REMARK   77  A    between atoms: _198  and  _199
REMARK   78  A    between atoms: _198  and  _201
REMARK   79  A    between atoms: _201  and  _202
REMARK   80  A    between atoms: _205  and  _207
REMARK   81  A    between atoms: _207  and  _208
REMARK   82  A    between atoms: _211  and  _213
REMARK   83  A    between atoms: _213  and  _214
REMARK   84  A    between atoms: _213  and  _216
REMARK   85  A    between atoms: _216  and  _217
REMARK   86  A    between atoms: _220  and  _222
REMARK   87  A    between atoms: _222  and  _223
REMARK   88  A    between atoms: _222  and  _225
REMARK   89  A    between atoms: _225  and  _226
REMARK   90  A    between atoms: _229  and  _231
REMARK   91  A    between atoms: _231  and  _232
REMARK   92  A    between atoms: _231  and  _234
REMARK   93  A    between atoms: _237  and  _239
REMARK   94  A    between atoms: _239  and  _240
REMARK   95  A    between atoms: _239  and  _242
REMARK   96  A    between atoms: _242  and  _243
REMARK   97  A    between atoms: _246  and  _248
REMARK   98  A    between atoms: _248  and  _249
REMARK   99  A    between atoms: _248  and  _251
REMARK  100  A    between atoms: _251  and  _252
REMARK  101  A    between atoms: _257  and  _258
REMARK  102  A    between atoms: _260  and  _262
REMARK  103  A    between atoms: _262  and  _263
REMARK  104  A    between atoms: _265  and  _267
REMARK  105  A    between atoms: _267  and  _268
REMARK  106  A    between atoms: _271  and  _273
REMARK  107  A    between atoms: _273  and  _274
REMARK  108  A    between atoms: _273  and  _276
REMARK  109  A    between atoms: _276  and  _277
REMARK  110  A    between atoms: _280  and  _282
REMARK  111  A    between atoms: _282  and  _283
REMARK  112  A    between atoms: _282  and  _285
REMARK  113  A    between atoms: _285  and  _286
REMARK  114  A    between atoms: _289  and  _291
REMARK  115  A    between atoms: _291  and  _292
REMARK  116  A    between atoms: _291  and  _294
REMARK  117  A    between atoms: _294  and  _295
REMARK  118  A    between atoms: _295  and  _296
REMARK  119  A    between atoms: _298  and  _300
REMARK  120  A    between atoms: _300  and  _301
REMARK  121  A    between atoms: _300  and  _303
REMARK  122  A    between atoms: _303  and  _304
REMARK  123  A    between atoms: _307  and  _309
REMARK  124  A    between atoms: _309  and  _310
REMARK  125  A    between atoms: _309  and  _312
REMARK  126  A    between atoms: _312  and  _313
REMARK  127  A    between atoms: _316  and  _318
REMARK  128  A    between atoms: _318  and  _319
REMARK  129  A    between atoms: _321  and  _323
REMARK  130  A    between atoms: _323  and  _324
REMARK  131  A    between atoms: _323  and  _326
REMARK  132  A    between atoms: _326  and  _327
REMARK  133  A    between atoms: _330  and  _332
REMARK  134  A    between atoms: _332  and  _333
REMARK  135  A    between atoms: _336  and  _338
REMARK  136  A    between atoms: _338  and  _339
REMARK  137  A    between atoms: _338  and  _341
REMARK  138  A    between atoms: _341  and  _342
REMARK  139  A    between atoms: _342  and  _343
REMARK  140  A    between atoms: _343  and  _344
REMARK  141  A    between atoms: _344  and  _345
REMARK  142  A    between atoms: _349  and  _351
REMARK  143  A    between atoms: _351  and  _352
REMARK  144  A    between atoms: _351  and  _354
REMARK  145  A    between atoms: _354  and  _355
REMARK  146  A    between atoms: _359  and  _360
REMARK  147  A    between atoms: _365  and  _367
REMARK  148  A    between atoms: _367  and  _368
REMARK  149  A    between atoms: _370  and  _372
REMARK  150  A    between atoms: _372  and  _373
REMARK  151  A    between atoms: _372  and  _375
REMARK  152  A    between atoms: _375  and  _376
REMARK  153  A    between atoms: _376  and  _377
REMARK  154  A    between atoms: _377  and  _378
REMARK  155  A    between atoms: _378  and  _379
REMARK  156  A    between atoms: _383  and  _385
REMARK  157  A    between atoms: _385  and  _386
REMARK  158  A    between atoms: _385  and  _388
REMARK  159  A    between atoms: _388  and  _389
REMARK  160  A    between atoms: _392  and  _394
REMARK  161  A    between atoms: _394  and  _395
REMARK  162  A    between atoms: _394  and  _397
REMARK  163  A    between atoms: _397  and  _398
REMARK  164  A    between atoms: _401  and  _403
REMARK  165  A    between atoms: _403  and  _404
REMARK  166  A    between atoms: _403  and  _406
REMARK  167  A    between atoms: _406  and  _407
REMARK  168  A    between atoms: _407  and  _408
REMARK  169  A    between atoms: _411  and  _413
REMARK  170  A    between atoms: _413  and  _414
REMARK  171  A    between atoms: _413  and  _416
REMARK  172  A    between atoms: _416  and  _417
REMARK  173  A    between atoms: _417  and  _418
REMARK  174  A    between atoms: _421  and  _423
REMARK  175  A    between atoms: _423  and  _424
REMARK  176  A    between atoms: _423  and  _426
REMARK  177  A    between atoms: _426  and  _427
REMARK  178  A    between atoms: _432  and  _434
REMARK  179  A    between atoms: _434  and  _435
REMARK  180  A    between atoms: _434  and  _437
REMARK  181  A    between atoms: _437  and  _438
REMARK                            x       y       z     vdW  Elec       q    Type
REMARK                         _______ _______ _______ _____ _____    ______ ____
ROOT
ATOM      1  O   HOH     1       6.339   2.129  13.637  0.00  0.00    +0.000 OA
ENDROOT
TORSDOF 0
REMARK  Name = ../refined-set-2016/3bex/3bex_pocket.pdb
REMARK  181 active torsions:
REMARK  status: ('A' for Active; 'I' for Inactive)
REMARK    1  A    between atoms: _1  and  _3
REMARK    2  A    between atoms: _3  and  _4
REMARK    3  A    between atoms: _3  and  _6
REMARK    4  A    between atoms: _6  and  _7
REMARK    5  A    between atoms: _10  and  _12
REMARK    6  A    between atoms: _12  and  _13
REMARK    7  A    between atoms: _12  and  _15
REMARK    8  A    between atoms: _18  and  _20
REMARK    9  A    between atoms: _20  and  _21
REMARK   10  A    between atoms: _23  and  _25
REMARK   11  A    between atoms: _25  and  _26
REMARK   12  A    between atoms: _25  and  _28
REMARK   13  A    between atoms: _28  and  _29
REMARK   14  A    between atoms: _34  and  _36
REMARK   15  A    between atoms: _36  and  _37
REMARK   16  A    between atoms: _36  and  _39
REMARK   17  A    between atoms: _39  and  _40
REMARK   18  A    between atoms: _43  and  _45
REMARK   19  A    between atoms: _45  and  _46
REMARK   20  A    between atoms: _45  and  _48
REMARK   21  A    between atoms: _48  and  _49
REMARK   22  A    between atoms: _51  and  _53
REMARK   23  A    between atoms: _53  and  _54
REMARK   24  A    between atoms: _53  and  _56
REMARK   25  A    between atoms: _59  and  _61
REMARK   26  A    between atoms: _61  and  _62
REMARK   27  A    between atoms: _61  and  _64
REMARK   28  A    between atoms: _68  and  _69
REMARK   29  A    between atoms: _74  and  _76
REMARK   30  A    between atoms: _76  and  _77
REMARK   31  A    between atoms: _76  and  _79
REMARK   32  A    between atoms: _82  and  _84
REMARK   33  A    between atoms: _84  and  _85
REMARK   34  A    between atoms: _84  and  _87
REMARK   35  A    between atoms: _87  and  _88
REMARK   36  A    between atoms: _94  and  _95
REMARK   37  A    between atoms: _100  and  _102
REMARK   38  A    between atoms: _102  and  _103
REMARK   39  A    between atoms: _102  and  _105
REMARK   40  A    between atoms: _105  and  _106
REMARK   41  A    between atoms: _108  and  _110
REMARK   42  A    between atoms: _110  and  _111
REMARK   43  A    between atoms: _110  and  _113
REMARK   44  A    between atoms: _113  and  _114
REMARK   45  A    between atoms: _114  and  _115
REMARK   46  A    between atoms: _118  and  _120
REMARK   47  A    between atoms: _120  and  _121
REMARK   48  A    between atoms: _120  and  _123
REMARK   49  A    between atoms: _126  and  _128
REMARK   50  A    between atoms: _128  and  _129
REMARK   51  A    between atoms: _131  and  _133
REMARK   52  A    between atoms: _133  and  _134
REMARK   53  A    between atoms: _137  and  _139
REMARK   54  A    between atoms: _139  and  _140
REMARK   55  A    between atoms: _139  and  _142
REMARK   56  A    between atoms: _142  and  _143
REMARK   57  A    between atoms: _146  and  _148
REMARK   58  A    between atoms: _148  and  _149
REMARK   59  A    between atoms: _148  and  _151
REMARK   60  A    between atoms: _151  and  _152
REMARK   61  A    between atoms: _152  and  _153
REMARK   62  A    between atoms: _153  and  _154
REMARK   63  A    between atoms: _163  and  _165
REMARK   64  A    between atoms: _165  and  _166
REMARK   65  A    between atoms: _165  and  _168
REMARK   66  A    between atoms: _171  and  _173
REMARK   67  A    between atoms: _173  and  _174
REMARK   68  A    between atoms: _173  and  _176
REMARK   69  A    between atoms: _176  and  _177
REMARK   70  A    between atoms: _182  and  _184
REMARK   71  A    between atoms: _184  and  _185
REMARK   72  A    between atoms: _184  and  _187
REMARK   73  A    between atoms: _187  and  _188
REMARK   74  A    between atoms: _191  and  _193
REMARK   75  A    between atoms: _193  and  _194
REMARK   76  A    between atoms: _196  and  _198
REMARK   77  A    between atoms: _198  and  _199
REMARK   78  A    between atoms: _198  and  _201
REMARK   79  A    between atoms: _201  and  _202
REMARK   80  A    between atoms: _205  and  _207
REMARK   81  A    between atoms: _207  and  _208
REMARK   82  A    between atoms: _211  and  _213
REMARK   83  A    between atoms: _213  and  _214
REMARK   84  A    between atoms: _213  and  _216
REMARK   85  A    between atoms: _216  and  _217
REMARK   86  A    between atoms: _220  and  _222
REMARK   87  A    between atoms: _222  and  _223
REMARK   88  A    between atoms: _222  and  _225
REMARK   89  A    between atoms: _225  and  _226
REMARK   90  A    between atoms: _229  and  _231
REMARK   91  A    between atoms: _231  and  _232
REMARK   92  A    between atoms: _231  and  _234
REMARK   93  A    between atoms: _237  and  _239
REMARK   94  A    between atoms: _239  and  _240
REMARK   95  A    between atoms: _239  and  _242
REMARK   96  A    between atoms: _242  and  _243
REMARK   97  A    between atoms: _246  and  _248
REMARK   98  A    between atoms: _248  and  _249
REMARK   99  A    between atoms: _248  and  _251
REMARK  100  A    between atoms: _251  and  _252
REMARK  101  A    between atoms: _257  and  _258
REMARK  102  A    between atoms: _260  and  _262
REMARK  103  A    between atoms: _262  and  _263
REMARK  104  A    between atoms: _265  and  _267
REMARK  105  A    between atoms: _267  and  _268
REMARK  106  A    between atoms: _271  and  _273
REMARK  107  A    between atoms: _273  and  _274
REMARK  108  A    between atoms: _273  and  _276
REMARK  109  A    between atoms: _276  and  _277
REMARK  110  A    between atoms: _280  and  _282
REMARK  111  A    between atoms: _282  and  _283
REMARK  112  A    between atoms: _282  and  _285
REMARK  113  A    between atoms: _285  and  _286
REMARK  114  A    between atoms: _289  and  _291
REMARK  115  A    between atoms: _291  and  _292
REMARK  116  A    between atoms: _291  and  _294
REMARK  117  A    between atoms: _294  and  _295
REMARK  118  A    between atoms: _295  and  _296
REMARK  119  A    between atoms: _298  and  _300
REMARK  120  A    between atoms: _300  and  _301
REMARK  121  A    between atoms: _300  and  _303
REMARK  122  A    between atoms: _303  and  _304
REMARK  123  A    between atoms: _307  and  _309
REMARK  124  A    between atoms: _309  and  _310
REMARK  125  A    between atoms: _309  and  _312
REMARK  126  A    between atoms: _312  and  _313
REMARK  127  A    between atoms: _316  and  _318
REMARK  128  A    between atoms: _318  and  _319
REMARK  129  A    between atoms: _321  and  _323
REMARK  130  A    between atoms: _323  and  _324
REMARK  131  A    between atoms: _323  and  _326
REMARK  132  A    between atoms: _326  and  _327
REMARK  133  A    between atoms: _330  and  _332
REMARK  134  A    between atoms: _332  and  _333
REMARK  135  A    between atoms: _336  and  _338
REMARK  136  A    between atoms: _338  and  _339
REMARK  137  A    between atoms: _338  and  _341
REMARK  138  A    between atoms: _341  and  _342
REMARK  139  A    between atoms: _342  and  _343
REMARK  140  A    between atoms: _343  and  _344
REMARK  141  A    between atoms: _344  and  _345
REMARK  142  A    between atoms: _349  and  _351
REMARK  143  A    between atoms: _351  and  _352
REMARK  144  A    between atoms: _351  and  _354
REMARK  145  A    between atoms: _354  and  _355
REMARK  146  A    between atoms: _359  and  _360
REMARK  147  A    between atoms: _365  and  _367
REMARK  148  A    between atoms: _367  and  _368
REMARK  149  A    between atoms: _370  and  _372
REMARK  150  A    between atoms: _372  and  _373
REMARK  151  A    between atoms: _372  and  _375
REMARK  152  A    between atoms: _375  and  _376
REMARK  153  A    between atoms: _376  and  _377
REMARK  154  A    between atoms: _377  and  _378
REMARK  155  A    between atoms: _378  and  _379
REMARK  156  A    between atoms: _383  and  _385
REMARK  157  A    between atoms: _385  and  _386
REMARK  158  A    between atoms: _385  and  _388
REMARK  159  A    between atoms: _388  and  _389
REMARK  160  A    between atoms: _392  and  _394
REMARK  161  A    between atoms: _394  and  _395
REMARK  162  A    between atoms: _394  and  _397
REMARK  163  A    between atoms: _397  and  _398
REMARK  164  A    between atoms: _401  and  _403
REMARK  165  A    between atoms: _403  and  _404
REMARK  166  A    between atoms: _403  and  _406
REMARK  167  A    between atoms: _406  and  _407
REMARK  168  A    between atoms: _407  and  _408
REMARK  169  A    between atoms: _411  and  _413
REMARK  170  A    between atoms: _413  and  _414
REMARK  171  A    between atoms: _413  and  _416
REMARK  172  A    between atoms: _416  and  _417
REMARK  173  A    between atoms: _417  and  _418
REMARK  174  A    between atoms: _421  and  _423
REMARK  175  A    between atoms: _423  and  _424
REMARK  176  A    between atoms: _423  and  _426
REMARK  177  A    between atoms: _426  and  _427
REMARK  178  A    between atoms: _432  and  _434
REMARK  179  A    between atoms: _434  and  _435
REMARK  180  A    between atoms: _434  and  _437
REMARK  181  A    between atoms: _437  and  _438
REMARK                            x       y       z     vdW  Elec       q    Type
REMARK                         _______ _______ _______ _____ _____    ______ ____
ROOT
ATOM      1  O   HOH     1       6.485   5.683   5.699  0.00  0.00    +0.000 OA
ENDROOT
TORSDOF 0
REMARK  Name = ../refined-set-2016/3bex/3bex_pocket.pdb
REMARK  181 active torsions:
REMARK  status: ('A' for Active; 'I' for Inactive)
REMARK    1  A    between atoms: _1  and  _3
REMARK    2  A    between atoms: _3  and  _4
REMARK    3  A    between atoms: _3  and  _6
REMARK    4  A    between atoms: _6  and  _7
REMARK    5  A    between atoms: _10  and  _12
REMARK    6  A    between atoms: _12  and  _13
REMARK    7  A    between atoms: _12  and  _15
REMARK    8  A    between atoms: _18  and  _20
REMARK    9  A    between atoms: _20  and  _21
REMARK   10  A    between atoms: _23  and  _25
REMARK   11  A    between atoms: _25  and  _26
REMARK   12  A    between atoms: _25  and  _28
REMARK   13  A    between atoms: _28  and  _29
REMARK   14  A    between atoms: _34  and  _36
REMARK   15  A    between atoms: _36  and  _37
REMARK   16  A    between atoms: _36  and  _39
REMARK   17  A    between atoms: _39  and  _40
REMARK   18  A    between atoms: _43  and  _45
REMARK   19  A    between atoms: _45  and  _46
REMARK   20  A    between atoms: _45  and  _48
REMARK   21  A    between atoms: _48  and  _49
REMARK   22  A    between atoms: _51  and  _53
REMARK   23  A    between atoms: _53  and  _54
REMARK   24  A    between atoms: _53  and  _56
REMARK   25  A    between atoms: _59  and  _61
REMARK   26  A    between atoms: _61  and  _62
REMARK   27  A    between atoms: _61  and  _64
REMARK   28  A    between atoms: _68  and  _69
REMARK   29  A    between atoms: _74  and  _76
REMARK   30  A    between atoms: _76  and  _77
REMARK   31  A    between atoms: _76  and  _79
REMARK   32  A    between atoms: _82  and  _84
REMARK   33  A    between atoms: _84  and  _85
REMARK   34  A    between atoms: _84  and  _87
REMARK   35  A    between atoms: _87  and  _88
REMARK   36  A    between atoms: _94  and  _95
REMARK   37  A    between atoms: _100  and  _102
REMARK   38  A    between atoms: _102  and  _103
REMARK   39  A    between atoms: _102  and  _105
REMARK   40  A    between atoms: _105  and  _106
REMARK   41  A    between atoms: _108  and  _110
REMARK   42  A    between atoms: _110  and  _111
REMARK   43  A    between atoms: _110  and  _113
REMARK   44  A    between atoms: _113  and  _114
REMARK   45  A    between atoms: _114  and  _115
REMARK   46  A    between atoms: _118  and  _120
REMARK   47  A    between atoms: _120  and  _121
REMARK   48  A    between atoms: _120  and  _123
REMARK   49  A    between atoms: _126  and  _128
REMARK   50  A    between atoms: _128  and  _129
REMARK   51  A    between atoms: _131  and  _133
REMARK   52  A    between atoms: _133  and  _134
REMARK   53  A    between atoms: _137  and  _139
REMARK   54  A    between atoms: _139  and  _140
REMARK   55  A    between atoms: _139  and  _142
REMARK   56  A    between atoms: _142  and  _143
REMARK   57  A    between atoms: _146  and  _148
REMARK   58  A    between atoms: _148  and  _149
REMARK   59  A    between atoms: _148  and  _151
REMARK   60  A    between atoms: _151  and  _152
REMARK   61  A    between atoms: _152  and  _153
REMARK   62  A    between atoms: _153  and  _154
REMARK   63  A    between atoms: _163  and  _165
REMARK   64  A    between atoms: _165  and  _166
REMARK   65  A    between atoms: _165  and  _168
REMARK   66  A    between atoms: _171  and  _173
REMARK   67  A    between atoms: _173  and  _174
REMARK   68  A    between atoms: _173  and  _176
REMARK   69  A    between atoms: _176  and  _177
REMARK   70  A    between atoms: _182  and  _184
REMARK   71  A    between atoms: _184  and  _185
REMARK   72  A    between atoms: _184  and  _187
REMARK   73  A    between atoms: _187  and  _188
REMARK   74  A    between atoms: _191  and  _193
REMARK   75  A    between atoms: _193  and  _194
REMARK   76  A    between atoms: _196  and  _198
REMARK   77  A    between atoms: _198  and  _199
REMARK   78  A    between atoms: _198  and  _201
REMARK   79  A    between atoms: _201  and  _202
REMARK   80  A    between atoms: _205  and  _207
REMARK   81  A    between atoms: _207  and  _208
REMARK   82  A    between atoms: _211  and  _213
REMARK   83  A    between atoms: _213  and  _214
REMARK   84  A    between atoms: _213  and  _216
REMARK   85  A    between atoms: _216  and  _217
REMARK   86  A    between atoms: _220  and  _222
REMARK   87  A    between atoms: _222  and  _223
REMARK   88  A    between atoms: _222  and  _225
REMARK   89  A    between atoms: _225  and  _226
REMARK   90  A    between atoms: _229  and  _231
REMARK   91  A    between atoms: _231  and  _232
REMARK   92  A    between atoms: _231  and  _234
REMARK   93  A    between atoms: _237  and  _239
REMARK   94  A    between atoms: _239  and  _240
REMARK   95  A    between atoms: _239  and  _242
REMARK   96  A    between atoms: _242  and  _243
REMARK   97  A    between atoms: _246  and  _248
REMARK   98  A    between atoms: _248  and  _249
REMARK   99  A    between atoms: _248  and  _251
REMARK  100  A    between atoms: _251  and  _252
REMARK  101  A    between atoms: _257  and  _258
REMARK  102  A    between atoms: _260  and  _262
REMARK  103  A    between atoms: _262  and  _263
REMARK  104  A    between atoms: _265  and  _267
REMARK  105  A    between atoms: _267  and  _268
REMARK  106  A    between atoms: _271  and  _273
REMARK  107  A    between atoms: _273  and  _274
REMARK  108  A    between atoms: _273  and  _276
REMARK  109  A    between atoms: _276  and  _277
REMARK  110  A    between atoms: _280  and  _282
REMARK  111  A    between atoms: _282  and  _283
REMARK  112  A    between atoms: _282  and  _285
REMARK  113  A    between atoms: _285  and  _286
REMARK  114  A    between atoms: _289  and  _291
REMARK  115  A    between atoms: _291  and  _292
REMARK  116  A    between atoms: _291  and  _294
REMARK  117  A    between atoms: _294  and  _295
REMARK  118  A    between atoms: _295  and  _296
REMARK  119  A    between atoms: _298  and  _300
REMARK  120  A    between atoms: _300  and  _301
REMARK  121  A    between atoms: _300  and  _303
REMARK  122  A    between atoms: _303  and  _304
REMARK  123  A    between atoms: _307  and  _309
REMARK  124  A    between atoms: _309  and  _310
REMARK  125  A    between atoms: _309  and  _312
REMARK  126  A    between atoms: _312  and  _313
REMARK  127  A    between atoms: _316  and  _318
REMARK  128  A    between atoms: _318  and  _319
REMARK  129  A    between atoms: _321  and  _323
REMARK  130  A    between atoms: _323  and  _324
REMARK  131  A    between atoms: _323  and  _326
REMARK  132  A    between atoms: _326  and  _327
REMARK  133  A    between atoms: _330  and  _332
REMARK  134  A    between atoms: _332  and  _333
REMARK  135  A    between atoms: _336  and  _338
REMARK  136  A    between atoms: _338  and  _339
REMARK  137  A    between atoms: _338  and  _341
REMARK  138  A    between atoms: _341  and  _342
REMARK  139  A    between atoms: _342  and  _343
REMARK  140  A    between atoms: _343  and  _344
REMARK  141  A    between atoms: _344  and  _345
REMARK  142  A    between atoms: _349  and  _351
REMARK  143  A    between atoms: _351  and  _352
REMARK  144  A    between atoms: _351  and  _354
REMARK  145  A    between atoms: _354  and  _355
REMARK  146  A    between atoms: _359  and  _360
REMARK  147  A    between atoms: _365  and  _367
REMARK  148  A    between atoms: _367  and  _368
REMARK  149  A    between atoms: _370  and  _372
REMARK  150  A    between atoms: _372  and  _373
REMARK  151  A    between atoms: _372  and  _375
REMARK  152  A    between atoms: _375  and  _376
REMARK  153  A    between atoms: _376  and  _377
REMARK  154  A    between atoms: _377  and  _378
REMARK  155  A    between atoms: _378  and  _379
REMARK  156  A    between atoms: _383  and  _385
REMARK  157  A    between atoms: _385  and  _386
REMARK  158  A    between atoms: _385  and  _388
REMARK  159  A    between atoms: _388  and  _389
REMARK  160  A    between atoms: _392  and  _394
REMARK  161  A    between atoms: _394  and  _395
REMARK  162  A    between atoms: _394  and  _397
REMARK  163  A    between atoms: _397  and  _398
REMARK  164  A    between atoms: _401  and  _403
REMARK  165  A    between atoms: _403  and  _404
REMARK  166  A    between atoms: _403  and  _406
REMARK  167  A    between atoms: _406  and  _407
REMARK  168  A    between atoms: _407  and  _408
REMARK  169  A    between atoms: _411  and  _413
REMARK  170  A    between atoms: _413  and  _414
REMARK  171  A    between atoms: _413  and  _416
REMARK  172  A    between atoms: _416  and  _417
REMARK  173  A    between atoms: _417  and  _418
REMARK  174  A    between atoms: _421  and  _423
REMARK  175  A    between atoms: _423  and  _424
REMARK  176  A    between atoms: _423  and  _426
REMARK  177  A    between atoms: _426  and  _427
REMARK  178  A    between atoms: _432  and  _434
REMARK  179  A    between atoms: _434  and  _435
REMARK  180  A    between atoms: _434  and  _437
REMARK  181  A    between atoms: _437  and  _438
REMARK                            x       y       z     vdW  Elec       q    Type
REMARK                         _______ _______ _______ _____ _____    ______ ____
ROOT
ATOM      1  O   HOH     1       2.433   2.312  16.942  0.00  0.00    +0.000 OA
ENDROOT
TORSDOF 0
REMARK  Name = ../refined-set-2016/3bex/3bex_pocket.pdb
REMARK  181 active torsions:
REMARK  status: ('A' for Active; 'I' for Inactive)
REMARK    1  A    between atoms: _1  and  _3
REMARK    2  A    between atoms: _3  and  _4
REMARK    3  A    between atoms: _3  and  _6
REMARK    4  A    between atoms: _6  and  _7
REMARK    5  A    between atoms: _10  and  _12
REMARK    6  A    between atoms: _12  and  _13
REMARK    7  A    between atoms: _12  and  _15
REMARK    8  A    between atoms: _18  and  _20
REMARK    9  A    between atoms: _20  and  _21
REMARK   10  A    between atoms: _23  and  _25
REMARK   11  A    between atoms: _25  and  _26
REMARK   12  A    between atoms: _25  and  _28
REMARK   13  A    between atoms: _28  and  _29
REMARK   14  A    between atoms: _34  and  _36
REMARK   15  A    between atoms: _36  and  _37
REMARK   16  A    between atoms: _36  and  _39
REMARK   17  A    between atoms: _39  and  _40
REMARK   18  A    between atoms: _43  and  _45
REMARK   19  A    between atoms: _45  and  _46
REMARK   20  A    between atoms: _45  and  _48
REMARK   21  A    between atoms: _48  and  _49
REMARK   22  A    between atoms: _51  and  _53
REMARK   23  A    between atoms: _53  and  _54
REMARK   24  A    between atoms: _53  and  _56
REMARK   25  A    between atoms: _59  and  _61
REMARK   26  A    between atoms: _61  and  _62
REMARK   27  A    between atoms: _61  and  _64
REMARK   28  A    between atoms: _68  and  _69
REMARK   29  A    between atoms: _74  and  _76
REMARK   30  A    between atoms: _76  and  _77
REMARK   31  A    between atoms: _76  and  _79
REMARK   32  A    between atoms: _82  and  _84
REMARK   33  A    between atoms: _84  and  _85
REMARK   34  A    between atoms: _84  and  _87
REMARK   35  A    between atoms: _87  and  _88
REMARK   36  A    between atoms: _94  and  _95
REMARK   37  A    between atoms: _100  and  _102
REMARK   38  A    between atoms: _102  and  _103
REMARK   39  A    between atoms: _102  and  _105
REMARK   40  A    between atoms: _105  and  _106
REMARK   41  A    between atoms: _108  and  _110
REMARK   42  A    between atoms: _110  and  _111
REMARK   43  A    between atoms: _110  and  _113
REMARK   44  A    between atoms: _113  and  _114
REMARK   45  A    between atoms: _114  and  _115
REMARK   46  A    between atoms: _118  and  _120
REMARK   47  A    between atoms: _120  and  _121
REMARK   48  A    between atoms: _120  and  _123
REMARK   49  A    between atoms: _126  and  _128
REMARK   50  A    between atoms: _128  and  _129
REMARK   51  A    between atoms: _131  and  _133
REMARK   52  A    between atoms: _133  and  _134
REMARK   53  A    between atoms: _137  and  _139
REMARK   54  A    between atoms: _139  and  _140
REMARK   55  A    between atoms: _139  and  _142
REMARK   56  A    between atoms: _142  and  _143
REMARK   57  A    between atoms: _146  and  _148
REMARK   58  A    between atoms: _148  and  _149
REMARK   59  A    between atoms: _148  and  _151
REMARK   60  A    between atoms: _151  and  _152
REMARK   61  A    between atoms: _152  and  _153
REMARK   62  A    between atoms: _153  and  _154
REMARK   63  A    between atoms: _163  and  _165
REMARK   64  A    between atoms: _165  and  _166
REMARK   65  A    between atoms: _165  and  _168
REMARK   66  A    between atoms: _171  and  _173
REMARK   67  A    between atoms: _173  and  _174
REMARK   68  A    between atoms: _173  and  _176
REMARK   69  A    between atoms: _176  and  _177
REMARK   70  A    between atoms: _182  and  _184
REMARK   71  A    between atoms: _184  and  _185
REMARK   72  A    between atoms: _184  and  _187
REMARK   73  A    between atoms: _187  and  _188
REMARK   74  A    between atoms: _191  and  _193
REMARK   75  A    between atoms: _193  and  _194
REMARK   76  A    between atoms: _196  and  _198
REMARK   77  A    between atoms: _198  and  _199
REMARK   78  A    between atoms: _198  and  _201
REMARK   79  A    between atoms: _201  and  _202
REMARK   80  A    between atoms: _205  and  _207
REMARK   81  A    between atoms: _207  and  _208
REMARK   82  A    between atoms: _211  and  _213
REMARK   83  A    between atoms: _213  and  _214
REMARK   84  A    between atoms: _213  and  _216
REMARK   85  A    between atoms: _216  and  _217
REMARK   86  A    between atoms: _220  and  _222
REMARK   87  A    between atoms: _222  and  _223
REMARK   88  A    between atoms: _222  and  _225
REMARK   89  A    between atoms: _225  and  _226
REMARK   90  A    between atoms: _229  and  _231
REMARK   91  A    between atoms: _231  and  _232
REMARK   92  A    between atoms: _231  and  _234
REMARK   93  A    between atoms: _237  and  _239
REMARK   94  A    between atoms: _239  and  _240
REMARK   95  A    between atoms: _239  and  _242
REMARK   96  A    between atoms: _242  and  _243
REMARK   97  A    between atoms: _246  and  _248
REMARK   98  A    between atoms: _248  and  _249
REMARK   99  A    between atoms: _248  and  _251
REMARK  100  A    between atoms: _251  and  _252
REMARK  101  A    between atoms: _257  and  _258
REMARK  102  A    between atoms: _260  and  _262
REMARK  103  A    between atoms: _262  and  _263
REMARK  104  A    between atoms: _265  and  _267
REMARK  105  A    between atoms: _267  and  _268
REMARK  106  A    between atoms: _271  and  _273
REMARK  107  A    between atoms: _273  and  _274
REMARK  108  A    between atoms: _273  and  _276
REMARK  109  A    between atoms: _276  and  _277
REMARK  110  A    between atoms: _280  and  _282
REMARK  111  A    between atoms: _282  and  _283
REMARK  112  A    between atoms: _282  and  _285
REMARK  113  A    between atoms: _285  and  _286
REMARK  114  A    between atoms: _289  and  _291
REMARK  115  A    between atoms: _291  and  _292
REMARK  116  A    between atoms: _291  and  _294
REMARK  117  A    between atoms: _294  and  _295
REMARK  118  A    between atoms: _295  and  _296
REMARK  119  A    between atoms: _298  and  _300
REMARK  120  A    between atoms: _300  and  _301
REMARK  121  A    between atoms: _300  and  _303
REMARK  122  A    between atoms: _303  and  _304
REMARK  123  A    between atoms: _307  and  _309
REMARK  124  A    between atoms: _309  and  _310
REMARK  125  A    between atoms: _309  and  _312
REMARK  126  A    between atoms: _312  and  _313
REMARK  127  A    between atoms: _316  and  _318
REMARK  128  A    between atoms: _318  and  _319
REMARK  129  A    between atoms: _321  and  _323
REMARK  130  A    between atoms: _323  and  _324
REMARK  131  A    between atoms: _323  and  _326
REMARK  132  A    between atoms: _326  and  _327
REMARK  133  A    between atoms: _330  and  _332
REMARK  134  A    between atoms: _332  and  _333
REMARK  135  A    between atoms: _336  and  _338
REMARK  136  A    between atoms: _338  and  _339
REMARK  137  A    between atoms: _338  and  _341
REMARK  138  A    between atoms: _341  and  _342
REMARK  139  A    between atoms: _342  and  _343
REMARK  140  A    between atoms: _343  and  _344
REMARK  141  A    between atoms: _344  and  _345
REMARK  142  A    between atoms: _349  and  _351
REMARK  143  A    between atoms: _351  and  _352
REMARK  144  A    between atoms: _351  and  _354
REMARK  145  A    between atoms: _354  and  _355
REMARK  146  A    between atoms: _359  and  _360
REMARK  147  A    between atoms: _365  and  _367
REMARK  148  A    between atoms: _367  and  _368
REMARK  149  A    between atoms: _370  and  _372
REMARK  150  A    between atoms: _372  and  _373
REMARK  151  A    between atoms: _372  and  _375
REMARK  152  A    between atoms: _375  and  _376
REMARK  153  A    between atoms: _376  and  _377
REMARK  154  A    between atoms: _377  and  _378
REMARK  155  A    between atoms: _378  and  _379
REMARK  156  A    between atoms: _383  and  _385
REMARK  157  A    between atoms: _385  and  _386
REMARK  158  A    between atoms: _385  and  _388
REMARK  159  A    between atoms: _388  and  _389
REMARK  160  A    between atoms: _392  and  _394
REMARK  161  A    between atoms: _394  and  _395
REMARK  162  A    between atoms: _394  and  _397
REMARK  163  A    between atoms: _397  and  _398
REMARK  164  A    between atoms: _401  and  _403
REMARK  165  A    between atoms: _403  and  _404
REMARK  166  A    between atoms: _403  and  _406
REMARK  167  A    between atoms: _406  and  _407
REMARK  168  A    between atoms: _407  and  _408
REMARK  169  A    between atoms: _411  and  _413
REMARK  170  A    between atoms: _413  and  _414
REMARK  171  A    between atoms: _413  and  _416
REMARK  172  A    between atoms: _416  and  _417
REMARK  173  A    between atoms: _417  and  _418
REMARK  174  A    between atoms: _421  and  _423
REMARK  175  A    between atoms: _423  and  _424
REMARK  176  A    between atoms: _423  and  _426
REMARK  177  A    between atoms: _426  and  _427
REMARK  178  A    between atoms: _432  and  _434
REMARK  179  A    between atoms: _434  and  _435
REMARK  180  A    between atoms: _434  and  _437
REMARK  181  A    between atoms: _437  and  _438
REMARK                            x       y       z     vdW  Elec       q    Type
REMARK                         _______ _______ _______ _____ _____    ______ ____
ROOT
ATOM      1  O   HOH     1       3.727   5.311   9.709  0.00  0.00    +0.000 OA
ENDROOT
TORSDOF 0
REMARK  Name = ../refined-set-2016/3bex/3bex_pocket.pdb
REMARK  181 active torsions:
REMARK  status: ('A' for Active; 'I' for Inactive)
REMARK    1  A    between atoms: _1  and  _3
REMARK    2  A    between atoms: _3  and  _4
REMARK    3  A    between atoms: _3  and  _6
REMARK    4  A    between atoms: _6  and  _7
REMARK    5  A    between atoms: _10  and  _12
REMARK    6  A    between atoms: _12  and  _13
REMARK    7  A    between atoms: _12  and  _15
REMARK    8  A    between atoms: _18  and  _20
REMARK    9  A    between atoms: _20  and  _21
REMARK   10  A    between atoms: _23  and  _25
REMARK   11  A    between atoms: _25  and  _26
REMARK   12  A    between atoms: _25  and  _28
REMARK   13  A    between atoms: _28  and  _29
REMARK   14  A    between atoms: _34  and  _36
REMARK   15  A    between atoms: _36  and  _37
REMARK   16  A    between atoms: _36  and  _39
REMARK   17  A    between atoms: _39  and  _40
REMARK   18  A    between atoms: _43  and  _45
REMARK   19  A    between atoms: _45  and  _46
REMARK   20  A    between atoms: _45  and  _48
REMARK   21  A    between atoms: _48  and  _49
REMARK   22  A    between atoms: _51  and  _53
REMARK   23  A    between atoms: _53  and  _54
REMARK   24  A    between atoms: _53  and  _56
REMARK   25  A    between atoms: _59  and  _61
REMARK   26  A    between atoms: _61  and  _62
REMARK   27  A    between atoms: _61  and  _64
REMARK   28  A    between atoms: _68  and  _69
REMARK   29  A    between atoms: _74  and  _76
REMARK   30  A    between atoms: _76  and  _77
REMARK   31  A    between atoms: _76  and  _79
REMARK   32  A    between atoms: _82  and  _84
REMARK   33  A    between atoms: _84  and  _85
REMARK   34  A    between atoms: _84  and  _87
REMARK   35  A    between atoms: _87  and  _88
REMARK   36  A    between atoms: _94  and  _95
REMARK   37  A    between atoms: _100  and  _102
REMARK   38  A    between atoms: _102  and  _103
REMARK   39  A    between atoms: _102  and  _105
REMARK   40  A    between atoms: _105  and  _106
REMARK   41  A    between atoms: _108  and  _110
REMARK   42  A    between atoms: _110  and  _111
REMARK   43  A    between atoms: _110  and  _113
REMARK   44  A    between atoms: _113  and  _114
REMARK   45  A    between atoms: _114  and  _115
REMARK   46  A    between atoms: _118  and  _120
REMARK   47  A    between atoms: _120  and  _121
REMARK   48  A    between atoms: _120  and  _123
REMARK   49  A    between atoms: _126  and  _128
REMARK   50  A    between atoms: _128  and  _129
REMARK   51  A    between atoms: _131  and  _133
REMARK   52  A    between atoms: _133  and  _134
REMARK   53  A    between atoms: _137  and  _139
REMARK   54  A    between atoms: _139  and  _140
REMARK   55  A    between atoms: _139  and  _142
REMARK   56  A    between atoms: _142  and  _143
REMARK   57  A    between atoms: _146  and  _148
REMARK   58  A    between atoms: _148  and  _149
REMARK   59  A    between atoms: _148  and  _151
REMARK   60  A    between atoms: _151  and  _152
REMARK   61  A    between atoms: _152  and  _153
REMARK   62  A    between atoms: _153  and  _154
REMARK   63  A    between atoms: _163  and  _165
REMARK   64  A    between atoms: _165  and  _166
REMARK   65  A    between atoms: _165  and  _168
REMARK   66  A    between atoms: _171  and  _173
REMARK   67  A    between atoms: _173  and  _174
REMARK   68  A    between atoms: _173  and  _176
REMARK   69  A    between atoms: _176  and  _177
REMARK   70  A    between atoms: _182  and  _184
REMARK   71  A    between atoms: _184  and  _185
REMARK   72  A    between atoms: _184  and  _187
REMARK   73  A    between atoms: _187  and  _188
REMARK   74  A    between atoms: _191  and  _193
REMARK   75  A    between atoms: _193  and  _194
REMARK   76  A    between atoms: _196  and  _198
REMARK   77  A    between atoms: _198  and  _199
REMARK   78  A    between atoms: _198  and  _201
REMARK   79  A    between atoms: _201  and  _202
REMARK   80  A    between atoms: _205  and  _207
REMARK   81  A    between atoms: _207  and  _208
REMARK   82  A    between atoms: _211  and  _213
REMARK   83  A    between atoms: _213  and  _214
REMARK   84  A    between atoms: _213  and  _216
REMARK   85  A    between atoms: _216  and  _217
REMARK   86  A    between atoms: _220  and  _222
REMARK   87  A    between atoms: _222  and  _223
REMARK   88  A    between atoms: _222  and  _225
REMARK   89  A    between atoms: _225  and  _226
REMARK   90  A    between atoms: _229  and  _231
REMARK   91  A    between atoms: _231  and  _232
REMARK   92  A    between atoms: _231  and  _234
REMARK   93  A    between atoms: _237  and  _239
REMARK   94  A    between atoms: _239  and  _240
REMARK   95  A    between atoms: _239  and  _242
REMARK   96  A    between atoms: _242  and  _243
REMARK   97  A    between atoms: _246  and  _248
REMARK   98  A    between atoms: _248  and  _249
REMARK   99  A    between atoms: _248  and  _251
REMARK  100  A    between atoms: _251  and  _252
REMARK  101  A    between atoms: _257  and  _258
REMARK  102  A    between atoms: _260  and  _262
REMARK  103  A    between atoms: _262  and  _263
REMARK  104  A    between atoms: _265  and  _267
REMARK  105  A    between atoms: _267  and  _268
REMARK  106  A    between atoms: _271  and  _273
REMARK  107  A    between atoms: _273  and  _274
REMARK  108  A    between atoms: _273  and  _276
REMARK  109  A    between atoms: _276  and  _277
REMARK  110  A    between atoms: _280  and  _282
REMARK  111  A    between atoms: _282  and  _283
REMARK  112  A    between atoms: _282  and  _285
REMARK  113  A    between atoms: _285  and  _286
REMARK  114  A    between atoms: _289  and  _291
REMARK  115  A    between atoms: _291  and  _292
REMARK  116  A    between atoms: _291  and  _294
REMARK  117  A    between atoms: _294  and  _295
REMARK  118  A    between atoms: _295  and  _296
REMARK  119  A    between atoms: _298  and  _300
REMARK  120  A    between atoms: _300  and  _301
REMARK  121  A    between atoms: _300  and  _303
REMARK  122  A    between atoms: _303  and  _304
REMARK  123  A    between atoms: _307  and  _309
REMARK  124  A    between atoms: _309  and  _310
REMARK  125  A    between atoms: _309  and  _312
REMARK  126  A    between atoms: _312  and  _313
REMARK  127  A    between atoms: _316  and  _318
REMARK  128  A    between atoms: _318  and  _319
REMARK  129  A    between atoms: _321  and  _323
REMARK  130  A    between atoms: _323  and  _324
REMARK  131  A    between atoms: _323  and  _326
REMARK  132  A    between atoms: _326  and  _327
REMARK  133  A    between atoms: _330  and  _332
REMARK  134  A    between atoms: _332  and  _333
REMARK  135  A    between atoms: _336  and  _338
REMARK  136  A    between atoms: _338  and  _339
REMARK  137  A    between atoms: _338  and  _341
REMARK  138  A    between atoms: _341  and  _342
REMARK  139  A    between atoms: _342  and  _343
REMARK  140  A    between atoms: _343  and  _344
REMARK  141  A    between atoms: _344  and  _345
REMARK  142  A    between atoms: _349  and  _351
REMARK  143  A    between atoms: _351  and  _352
REMARK  144  A    between atoms: _351  and  _354
REMARK  145  A    between atoms: _354  and  _355
REMARK  146  A    between atoms: _359  and  _360
REMARK  147  A    between atoms: _365  and  _367
REMARK  148  A    between atoms: _367  and  _368
REMARK  149  A    between atoms: _370  and  _372
REMARK  150  A    between atoms: _372  and  _373
REMARK  151  A    between atoms: _372  and  _375
REMARK  152  A    between atoms: _375  and  _376
REMARK  153  A    between atoms: _376  and  _377
REMARK  154  A    between atoms: _377  and  _378
REMARK  155  A    between atoms: _378  and  _379
REMARK  156  A    between atoms: _383  and  _385
REMARK  157  A    between atoms: _385  and  _386
REMARK  158  A    between atoms: _385  and  _388
REMARK  159  A    between atoms: _388  and  _389
REMARK  160  A    between atoms: _392  and  _394
REMARK  161  A    between atoms: _394  and  _395
REMARK  162  A    between atoms: _394  and  _397
REMARK  163  A    between atoms: _397  and  _398
REMARK  164  A    between atoms: _401  and  _403
REMARK  165  A    between atoms: _403  and  _404
REMARK  166  A    between atoms: _403  and  _406
REMARK  167  A    between atoms: _406  and  _407
REMARK  168  A    between atoms: _407  and  _408
REMARK  169  A    between atoms: _411  and  _413
REMARK  170  A    between atoms: _413  and  _414
REMARK  171  A    between atoms: _413  and  _416
REMARK  172  A    between atoms: _416  and  _417
REMARK  173  A    between atoms: _417  and  _418
REMARK  174  A    between atoms: _421  and  _423
REMARK  175  A    between atoms: _423  and  _424
REMARK  176  A    between atoms: _423  and  _426
REMARK  177  A    between atoms: _426  and  _427
REMARK  178  A    between atoms: _432  and  _434
REMARK  179  A    between atoms: _434  and  _435
REMARK  180  A    between atoms: _434  and  _437
REMARK  181  A    between atoms: _437  and  _438
REMARK                            x       y       z     vdW  Elec       q    Type
REMARK                         _______ _______ _______ _____ _____    ______ ____
ROOT
ATOM      1  O   HOH     1       4.275   5.924  12.120  0.00  0.00    +0.000 OA
ENDROOT
TORSDOF 0
REMARK  Name = ../refined-set-2016/3bex/3bex_pocket.pdb
REMARK  181 active torsions:
REMARK  status: ('A' for Active; 'I' for Inactive)
REMARK    1  A    between atoms: _1  and  _3
REMARK    2  A    between atoms: _3  and  _4
REMARK    3  A    between atoms: _3  and  _6
REMARK    4  A    between atoms: _6  and  _7
REMARK    5  A    between atoms: _10  and  _12
REMARK    6  A    between atoms: _12  and  _13
REMARK    7  A    between atoms: _12  and  _15
REMARK    8  A    between atoms: _18  and  _20
REMARK    9  A    between atoms: _20  and  _21
REMARK   10  A    between atoms: _23  and  _25
REMARK   11  A    between atoms: _25  and  _26
REMARK   12  A    between atoms: _25  and  _28
REMARK   13  A    between atoms: _28  and  _29
REMARK   14  A    between atoms: _34  and  _36
REMARK   15  A    between atoms: _36  and  _37
REMARK   16  A    between atoms: _36  and  _39
REMARK   17  A    between atoms: _39  and  _40
REMARK   18  A    between atoms: _43  and  _45
REMARK   19  A    between atoms: _45  and  _46
REMARK   20  A    between atoms: _45  and  _48
REMARK   21  A    between atoms: _48  and  _49
REMARK   22  A    between atoms: _51  and  _53
REMARK   23  A    between atoms: _53  and  _54
REMARK   24  A    between atoms: _53  and  _56
REMARK   25  A    between atoms: _59  and  _61
REMARK   26  A    between atoms: _61  and  _62
REMARK   27  A    between atoms: _61  and  _64
REMARK   28  A    between atoms: _68  and  _69
REMARK   29  A    between atoms: _74  and  _76
REMARK   30  A    between atoms: _76  and  _77
REMARK   31  A    between atoms: _76  and  _79
REMARK   32  A    between atoms: _82  and  _84
REMARK   33  A    between atoms: _84  and  _85
REMARK   34  A    between atoms: _84  and  _87
REMARK   35  A    between atoms: _87  and  _88
REMARK   36  A    between atoms: _94  and  _95
REMARK   37  A    between atoms: _100  and  _102
REMARK   38  A    between atoms: _102  and  _103
REMARK   39  A    between atoms: _102  and  _105
REMARK   40  A    between atoms: _105  and  _106
REMARK   41  A    between atoms: _108  and  _110
REMARK   42  A    between atoms: _110  and  _111
REMARK   43  A    between atoms: _110  and  _113
REMARK   44  A    between atoms: _113  and  _114
REMARK   45  A    between atoms: _114  and  _115
REMARK   46  A    between atoms: _118  and  _120
REMARK   47  A    between atoms: _120  and  _121
REMARK   48  A    between atoms: _120  and  _123
REMARK   49  A    between atoms: _126  and  _128
REMARK   50  A    between atoms: _128  and  _129
REMARK   51  A    between atoms: _131  and  _133
REMARK   52  A    between atoms: _133  and  _134
REMARK   53  A    between atoms: _137  and  _139
REMARK   54  A    between atoms: _139  and  _140
REMARK   55  A    between atoms: _139  and  _142
REMARK   56  A    between atoms: _142  and  _143
REMARK   57  A    between atoms: _146  and  _148
REMARK   58  A    between atoms: _148  and  _149
REMARK   59  A    between atoms: _148  and  _151
REMARK   60  A    between atoms: _151  and  _152
REMARK   61  A    between atoms: _152  and  _153
REMARK   62  A    between atoms: _153  and  _154
REMARK   63  A    between atoms: _163  and  _165
REMARK   64  A    between atoms: _165  and  _166
REMARK   65  A    between atoms: _165  and  _168
REMARK   66  A    between atoms: _171  and  _173
REMARK   67  A    between atoms: _173  and  _174
REMARK   68  A    between atoms: _173  and  _176
REMARK   69  A    between atoms: _176  and  _177
REMARK   70  A    between atoms: _182  and  _184
REMARK   71  A    between atoms: _184  and  _185
REMARK   72  A    between atoms: _184  and  _187
REMARK   73  A    between atoms: _187  and  _188
REMARK   74  A    between atoms: _191  and  _193
REMARK   75  A    between atoms: _193  and  _194
REMARK   76  A    between atoms: _196  and  _198
REMARK   77  A    between atoms: _198  and  _199
REMARK   78  A    between atoms: _198  and  _201
REMARK   79  A    between atoms: _201  and  _202
REMARK   80  A    between atoms: _205  and  _207
REMARK   81  A    between atoms: _207  and  _208
REMARK   82  A    between atoms: _211  and  _213
REMARK   83  A    between atoms: _213  and  _214
REMARK   84  A    between atoms: _213  and  _216
REMARK   85  A    between atoms: _216  and  _217
REMARK   86  A    between atoms: _220  and  _222
REMARK   87  A    between atoms: _222  and  _223
REMARK   88  A    between atoms: _222  and  _225
REMARK   89  A    between atoms: _225  and  _226
REMARK   90  A    between atoms: _229  and  _231
REMARK   91  A    between atoms: _231  and  _232
REMARK   92  A    between atoms: _231  and  _234
REMARK   93  A    between atoms: _237  and  _239
REMARK   94  A    between atoms: _239  and  _240
REMARK   95  A    between atoms: _239  and  _242
REMARK   96  A    between atoms: _242  and  _243
REMARK   97  A    between atoms: _246  and  _248
REMARK   98  A    between atoms: _248  and  _249
REMARK   99  A    between atoms: _248  and  _251
REMARK  100  A    between atoms: _251  and  _252
REMARK  101  A    between atoms: _257  and  _258
REMARK  102  A    between atoms: _260  and  _262
REMARK  103  A    between atoms: _262  and  _263
REMARK  104  A    between atoms: _265  and  _267
REMARK  105  A    between atoms: _267  and  _268
REMARK  106  A    between atoms: _271  and  _273
REMARK  107  A    between atoms: _273  and  _274
REMARK  108  A    between atoms: _273  and  _276
REMARK  109  A    between atoms: _276  and  _277
REMARK  110  A    between atoms: _280  and  _282
REMARK  111  A    between atoms: _282  and  _283
REMARK  112  A    between atoms: _282  and  _285
REMARK  113  A    between atoms: _285  and  _286
REMARK  114  A    between atoms: _289  and  _291
REMARK  115  A    between atoms: _291  and  _292
REMARK  116  A    between atoms: _291  and  _294
REMARK  117  A    between atoms: _294  and  _295
REMARK  118  A    between atoms: _295  and  _296
REMARK  119  A    between atoms: _298  and  _300
REMARK  120  A    between atoms: _300  and  _301
REMARK  121  A    between atoms: _300  and  _303
REMARK  122  A    between atoms: _303  and  _304
REMARK  123  A    between atoms: _307  and  _309
REMARK  124  A    between atoms: _309  and  _310
REMARK  125  A    between atoms: _309  and  _312
REMARK  126  A    between atoms: _312  and  _313
REMARK  127  A    between atoms: _316  and  _318
REMARK  128  A    between atoms: _318  and  _319
REMARK  129  A    between atoms: _321  and  _323
REMARK  130  A    between atoms: _323  and  _324
REMARK  131  A    between atoms: _323  and  _326
REMARK  132  A    between atoms: _326  and  _327
REMARK  133  A    between atoms: _330  and  _332
REMARK  134  A    between atoms: _332  and  _333
REMARK  135  A    between atoms: _336  and  _338
REMARK  136  A    between atoms: _338  and  _339
REMARK  137  A    between atoms: _338  and  _341
REMARK  138  A    between atoms: _341  and  _342
REMARK  139  A    between atoms: _342  and  _343
REMARK  140  A    between atoms: _343  and  _344
REMARK  141  A    between atoms: _344  and  _345
REMARK  142  A    between atoms: _349  and  _351
REMARK  143  A    between atoms: _351  and  _352
REMARK  144  A    between atoms: _351  and  _354
REMARK  145  A    between atoms: _354  and  _355
REMARK  146  A    between atoms: _359  and  _360
REMARK  147  A    between atoms: _365  and  _367
REMARK  148  A    between atoms: _367  and  _368
REMARK  149  A    between atoms: _370  and  _372
REMARK  150  A    between atoms: _372  and  _373
REMARK  151  A    between atoms: _372  and  _375
REMARK  152  A    between atoms: _375  and  _376
REMARK  153  A    between atoms: _376  and  _377
REMARK  154  A    between atoms: _377  and  _378
REMARK  155  A    between atoms: _378  and  _379
REMARK  156  A    between atoms: _383  and  _385
REMARK  157  A    between atoms: _385  and  _386
REMARK  158  A    between atoms: _385  and  _388
REMARK  159  A    between atoms: _388  and  _389
REMARK  160  A    between atoms: _392  and  _394
REMARK  161  A    between atoms: _394  and  _395
REMARK  162  A    between atoms: _394  and  _397
REMARK  163  A    between atoms: _397  and  _398
REMARK  164  A    between atoms: _401  and  _403
REMARK  165  A    between atoms: _403  and  _404
REMARK  166  A    between atoms: _403  and  _406
REMARK  167  A    between atoms: _406  and  _407
REMARK  168  A    between atoms: _407  and  _408
REMARK  169  A    between atoms: _411  and  _413
REMARK  170  A    between atoms: _413  and  _414
REMARK  171  A    between atoms: _413  and  _416
REMARK  172  A    between atoms: _416  and  _417
REMARK  173  A    between atoms: _417  and  _418
REMARK  174  A    between atoms: _421  and  _423
REMARK  175  A    between atoms: _423  and  _424
REMARK  176  A    between atoms: _423  and  _426
REMARK  177  A    between atoms: _426  and  _427
REMARK  178  A    between atoms: _432  and  _434
REMARK  179  A    between atoms: _434  and  _435
REMARK  180  A    between atoms: _434  and  _437
REMARK  181  A    between atoms: _437  and  _438
REMARK                            x       y       z     vdW  Elec       q    Type
REMARK                         _______ _______ _______ _____ _____    ______ ____
ROOT
ATOM      1  O   HOH     1       0.797   2.969  14.969  0.00  0.00    +0.000 OA
ENDROOT
TORSDOF 0
REMARK  Name = ../refined-set-2016/3bex/3bex_pocket.pdb
REMARK  181 active torsions:
REMARK  status: ('A' for Active; 'I' for Inactive)
REMARK    1  A    between atoms: _1  and  _3
REMARK    2  A    between atoms: _3  and  _4
REMARK    3  A    between atoms: _3  and  _6
REMARK    4  A    between atoms: _6  and  _7
REMARK    5  A    between atoms: _10  and  _12
REMARK    6  A    between atoms: _12  and  _13
REMARK    7  A    between atoms: _12  and  _15
REMARK    8  A    between atoms: _18  and  _20
REMARK    9  A    between atoms: _20  and  _21
REMARK   10  A    between atoms: _23  and  _25
REMARK   11  A    between atoms: _25  and  _26
REMARK   12  A    between atoms: _25  and  _28
REMARK   13  A    between atoms: _28  and  _29
REMARK   14  A    between atoms: _34  and  _36
REMARK   15  A    between atoms: _36  and  _37
REMARK   16  A    between atoms: _36  and  _39
REMARK   17  A    between atoms: _39  and  _40
REMARK   18  A    between atoms: _43  and  _45
REMARK   19  A    between atoms: _45  and  _46
REMARK   20  A    between atoms: _45  and  _48
REMARK   21  A    between atoms: _48  and  _49
REMARK   22  A    between atoms: _51  and  _53
REMARK   23  A    between atoms: _53  and  _54
REMARK   24  A    between atoms: _53  and  _56
REMARK   25  A    between atoms: _59  and  _61
REMARK   26  A    between atoms: _61  and  _62
REMARK   27  A    between atoms: _61  and  _64
REMARK   28  A    between atoms: _68  and  _69
REMARK   29  A    between atoms: _74  and  _76
REMARK   30  A    between atoms: _76  and  _77
REMARK   31  A    between atoms: _76  and  _79
REMARK   32  A    between atoms: _82  and  _84
REMARK   33  A    between atoms: _84  and  _85
REMARK   34  A    between atoms: _84  and  _87
REMARK   35  A    between atoms: _87  and  _88
REMARK   36  A    between atoms: _94  and  _95
REMARK   37  A    between atoms: _100  and  _102
REMARK   38  A    between atoms: _102  and  _103
REMARK   39  A    between atoms: _102  and  _105
REMARK   40  A    between atoms: _105  and  _106
REMARK   41  A    between atoms: _108  and  _110
REMARK   42  A    between atoms: _110  and  _111
REMARK   43  A    between atoms: _110  and  _113
REMARK   44  A    between atoms: _113  and  _114
REMARK   45  A    between atoms: _114  and  _115
REMARK   46  A    between atoms: _118  and  _120
REMARK   47  A    between atoms: _120  and  _121
REMARK   48  A    between atoms: _120  and  _123
REMARK   49  A    between atoms: _126  and  _128
REMARK   50  A    between atoms: _128  and  _129
REMARK   51  A    between atoms: _131  and  _133
REMARK   52  A    between atoms: _133  and  _134
REMARK   53  A    between atoms: _137  and  _139
REMARK   54  A    between atoms: _139  and  _140
REMARK   55  A    between atoms: _139  and  _142
REMARK   56  A    between atoms: _142  and  _143
REMARK   57  A    between atoms: _146  and  _148
REMARK   58  A    between atoms: _148  and  _149
REMARK   59  A    between atoms: _148  and  _151
REMARK   60  A    between atoms: _151  and  _152
REMARK   61  A    between atoms: _152  and  _153
REMARK   62  A    between atoms: _153  and  _154
REMARK   63  A    between atoms: _163  and  _165
REMARK   64  A    between atoms: _165  and  _166
REMARK   65  A    between atoms: _165  and  _168
REMARK   66  A    between atoms: _171  and  _173
REMARK   67  A    between atoms: _173  and  _174
REMARK   68  A    between atoms: _173  and  _176
REMARK   69  A    between atoms: _176  and  _177
REMARK   70  A    between atoms: _182  and  _184
REMARK   71  A    between atoms: _184  and  _185
REMARK   72  A    between atoms: _184  and  _187
REMARK   73  A    between atoms: _187  and  _188
REMARK   74  A    between atoms: _191  and  _193
REMARK   75  A    between atoms: _193  and  _194
REMARK   76  A    between atoms: _196  and  _198
REMARK   77  A    between atoms: _198  and  _199
REMARK   78  A    between atoms: _198  and  _201
REMARK   79  A    between atoms: _201  and  _202
REMARK   80  A    between atoms: _205  and  _207
REMARK   81  A    between atoms: _207  and  _208
REMARK   82  A    between atoms: _211  and  _213
REMARK   83  A    between atoms: _213  and  _214
REMARK   84  A    between atoms: _213  and  _216
REMARK   85  A    between atoms: _216  and  _217
REMARK   86  A    between atoms: _220  and  _222
REMARK   87  A    between atoms: _222  and  _223
REMARK   88  A    between atoms: _222  and  _225
REMARK   89  A    between atoms: _225  and  _226
REMARK   90  A    between atoms: _229  and  _231
REMARK   91  A    between atoms: _231  and  _232
REMARK   92  A    between atoms: _231  and  _234
REMARK   93  A    between atoms: _237  and  _239
REMARK   94  A    between atoms: _239  and  _240
REMARK   95  A    between atoms: _239  and  _242
REMARK   96  A    between atoms: _242  and  _243
REMARK   97  A    between atoms: _246  and  _248
REMARK   98  A    between atoms: _248  and  _249
REMARK   99  A    between atoms: _248  and  _251
REMARK  100  A    between atoms: _251  and  _252
REMARK  101  A    between atoms: _257  and  _258
REMARK  102  A    between atoms: _260  and  _262
REMARK  103  A    between atoms: _262  and  _263
REMARK  104  A    between atoms: _265  and  _267
REMARK  105  A    between atoms: _267  and  _268
REMARK  106  A    between atoms: _271  and  _273
REMARK  107  A    between atoms: _273  and  _274
REMARK  108  A    between atoms: _273  and  _276
REMARK  109  A    between atoms: _276  and  _277
REMARK  110  A    between atoms: _280  and  _282
REMARK  111  A    between atoms: _282  and  _283
REMARK  112  A    between atoms: _282  and  _285
REMARK  113  A    between atoms: _285  and  _286
REMARK  114  A    between atoms: _289  and  _291
REMARK  115  A    between atoms: _291  and  _292
REMARK  116  A    between atoms: _291  and  _294
REMARK  117  A    between atoms: _294  and  _295
REMARK  118  A    between atoms: _295  and  _296
REMARK  119  A    between atoms: _298  and  _300
REMARK  120  A    between atoms: _300  and  _301
REMARK  121  A    between atoms: _300  and  _303
REMARK  122  A    between atoms: _303  and  _304
REMARK  123  A    between atoms: _307  and  _309
REMARK  124  A    between atoms: _309  and  _310
REMARK  125  A    between atoms: _309  and  _312
REMARK  126  A    between atoms: _312  and  _313
REMARK  127  A    between atoms: _316  and  _318
REMARK  128  A    between atoms: _318  and  _319
REMARK  129  A    between atoms: _321  and  _323
REMARK  130  A    between atoms: _323  and  _324
REMARK  131  A    between atoms: _323  and  _326
REMARK  132  A    between atoms: _326  and  _327
REMARK  133  A    between atoms: _330  and  _332
REMARK  134  A    between atoms: _332  and  _333
REMARK  135  A    between atoms: _336  and  _338
REMARK  136  A    between atoms: _338  and  _339
REMARK  137  A    between atoms: _338  and  _341
REMARK  138  A    between atoms: _341  and  _342
REMARK  139  A    between atoms: _342  and  _343
REMARK  140  A    between atoms: _343  and  _344
REMARK  141  A    between atoms: _344  and  _345
REMARK  142  A    between atoms: _349  and  _351
REMARK  143  A    between atoms: _351  and  _352
REMARK  144  A    between atoms: _351  and  _354
REMARK  145  A    between atoms: _354  and  _355
REMARK  146  A    between atoms: _359  and  _360
REMARK  147  A    between atoms: _365  and  _367
REMARK  148  A    between atoms: _367  and  _368
REMARK  149  A    between atoms: _370  and  _372
REMARK  150  A    between atoms: _372  and  _373
REMARK  151  A    between atoms: _372  and  _375
REMARK  152  A    between atoms: _375  and  _376
REMARK  153  A    between atoms: _376  and  _377
REMARK  154  A    between atoms: _377  and  _378
REMARK  155  A    between atoms: _378  and  _379
REMARK  156  A    between atoms: _383  and  _385
REMARK  157  A    between atoms: _385  and  _386
REMARK  158  A    between atoms: _385  and  _388
REMARK  159  A    between atoms: _388  and  _389
REMARK  160  A    between atoms: _392  and  _394
REMARK  161  A    between atoms: _394  and  _395
REMARK  162  A    between atoms: _394  and  _397
REMARK  163  A    between atoms: _397  and  _398
REMARK  164  A    between atoms: _401  and  _403
REMARK  165  A    between atoms: _403  and  _404
REMARK  166  A    between atoms: _403  and  _406
REMARK  167  A    between atoms: _406  and  _407
REMARK  168  A    between atoms: _407  and  _408
REMARK  169  A    between atoms: _411  and  _413
REMARK  170  A    between atoms: _413  and  _414
REMARK  171  A    between atoms: _413  and  _416
REMARK  172  A    between atoms: _416  and  _417
REMARK  173  A    between atoms: _417  and  _418
REMARK  174  A    between atoms: _421  and  _423
REMARK  175  A    between atoms: _423  and  _424
REMARK  176  A    between atoms: _423  and  _426
REMARK  177  A    between atoms: _426  and  _427
REMARK  178  A    between atoms: _432  and  _434
REMARK  179  A    between atoms: _434  and  _435
REMARK  180  A    between atoms: _434  and  _437
REMARK  181  A    between atoms: _437  and  _438
REMARK                            x       y       z     vdW  Elec       q    Type
REMARK                         _______ _______ _______ _____ _____    ______ ____
ROOT
ATOM      1  O   HOH     1       3.588   2.548  13.782  0.00  0.00    +0.000 OA
ENDROOT
TORSDOF 0
