REMARK  Name = ../refined-set-2016/2r58/2r58_pocket.pdb
REMARK  84 active torsions:
REMARK  status: ('A' for Active; 'I' for Inactive)
REMARK    1  A    between atoms: _1  and  _3
REMARK    2  A    between atoms: _3  and  _4
REMARK    3  A    between atoms: _7  and  _9
REMARK    4  A    between atoms: _9  and  _10
REMARK    5  A    between atoms: _9  and  _12
REMARK    6  A    between atoms: _15  and  _17
REMARK    7  A    between atoms: _17  and  _18
REMARK    8  A    between atoms: _17  and  _20
REMARK    9  A    between atoms: _20  and  _21
REMARK   10  A    between atoms: _24  and  _26
REMARK   11  A    between atoms: _26  and  _27
REMARK   12  A    between atoms: _26  and  _29
REMARK   13  A    between atoms: _29  and  _30
REMARK   14  A    between atoms: _30  and  _31
REMARK   15  A    between atoms: _31  and  _32
REMARK   16  A    between atoms: _32  and  _33
REMARK   17  A    between atoms: _37  and  _39
REMARK   18  A    between atoms: _39  and  _40
REMARK   19  A    between atoms: _39  and  _42
REMARK   20  A    between atoms: _42  and  _43
REMARK   21  A    between atoms: _43  and  _44
REMARK   22  A    between atoms: _44  and  _45
REMARK   23  A    between atoms: _45  and  _46
REMARK   24  A    between atoms: _50  and  _52
REMARK   25  A    between atoms: _52  and  _53
REMARK   26  A    between atoms: _52  and  _55
REMARK   27  A    between atoms: _55  and  _56
REMARK   28  A    between atoms: _61  and  _63
REMARK   29  A    between atoms: _63  and  _64
REMARK   30  A    between atoms: _63  and  _66
REMARK   31  A    between atoms: _66  and  _67
REMARK   32  A    between atoms: _70  and  _72
REMARK   33  A    between atoms: _72  and  _73
REMARK   34  A    between atoms: _72  and  _75
REMARK   35  A    between atoms: _75  and  _76
REMARK   36  A    between atoms: _79  and  _81
REMARK   37  A    between atoms: _81  and  _82
REMARK   38  A    between atoms: _81  and  _84
REMARK   39  A    between atoms: _86  and  _88
REMARK   40  A    between atoms: _88  and  _89
REMARK   41  A    between atoms: _88  and  _91
REMARK   42  A    between atoms: _93  and  _95
REMARK   43  A    between atoms: _95  and  _96
REMARK   44  A    between atoms: _95  and  _98
REMARK   45  A    between atoms: _98  and  _99
REMARK   46  A    between atoms: _102  and  _104
REMARK   47  A    between atoms: _104  and  _105
REMARK   48  A    between atoms: _104  and  _107
REMARK   49  A    between atoms: _107  and  _108
REMARK   50  A    between atoms: _114  and  _116
REMARK   51  A    between atoms: _116  and  _117
REMARK   52  A    between atoms: _116  and  _119
REMARK   53  A    between atoms: _119  and  _120
REMARK   54  A    between atoms: _123  and  _125
REMARK   55  A    between atoms: _125  and  _126
REMARK   56  A    between atoms: _128  and  _130
REMARK   57  A    between atoms: _130  and  _131
REMARK   58  A    between atoms: _130  and  _133
REMARK   59  A    between atoms: _133  and  _134
REMARK   60  A    between atoms: _144  and  _146
REMARK   61  A    between atoms: _146  and  _147
REMARK   62  A    between atoms: _146  and  _149
REMARK   63  A    between atoms: _149  and  _150
REMARK   64  A    between atoms: _150  and  _151
REMARK   65  A    between atoms: _151  and  _152
REMARK   66  A    between atoms: _161  and  _163
REMARK   67  A    between atoms: _163  and  _164
REMARK   68  A    between atoms: _167  and  _169
REMARK   69  A    between atoms: _169  and  _170
REMARK   70  A    between atoms: _169  and  _172
REMARK   71  A    between atoms: _172  and  _173
REMARK   72  A    between atoms: _179  and  _181
REMARK   73  A    between atoms: _181  and  _182
REMARK   74  A    between atoms: _181  and  _184
REMARK   75  A    between atoms: _184  and  _185
REMARK   76  A    between atoms: _188  and  _190
REMARK   77  A    between atoms: _190  and  _191
REMARK   78  A    between atoms: _190  and  _193
REMARK   79  A    between atoms: _193  and  _194
REMARK   80  A    between atoms: _194  and  _195
REMARK   81  A    between atoms: _201  and  _202
REMARK   82  A    between atoms: _208  and  _209
REMARK   83  A    between atoms: _214  and  _216
REMARK   84  A    between atoms: _216  and  _217
REMARK                            x       y       z     vdW  Elec       q    Type
REMARK                         _______ _______ _______ _____ _____    ______ ____
ROOT
ATOM      1  CA  LYS A   4     -27.738  -9.942 -21.393  0.00  0.00    +0.149 C 
ENDROOT
BRANCH   1   4
ATOM      2  C   ASP A   3     -25.755 -11.162 -20.652  0.00  0.00    +0.241 C 
ATOM      3  O   ASP A   3     -26.119 -11.105 -19.484  0.00  0.00    -0.273 OA
ATOM      4  N   LYS A   4     -26.476 -10.659 -21.649  0.00  0.00    -0.297 N 
ATOM      5  H   LYS A   4     -26.143 -10.773 -22.628  0.00  0.00    +0.150 HD
BRANCH   2   6
ATOM      6  CA  ASP A   3     -24.428 -11.814 -21.016  0.00  0.00    +0.160 C 
BRANCH   6   8
ATOM      7  C   VAL A   2     -23.152  -9.794 -21.404  0.00  0.00    +0.241 C 
ATOM      8  N   ASP A   3     -23.406 -10.851 -20.634  0.00  0.00    -0.297 N 
ATOM      9  H   ASP A   3     -22.870 -10.989 -19.753  0.00  0.00    +0.150 HD
ATOM     10  O   VAL A   2     -23.638  -9.658 -22.527  0.00  0.00    -0.273 OA
BRANCH   7  11
ATOM     11  CA  VAL A   2     -22.223  -8.732 -20.815  0.00  0.00    +0.148 C 
BRANCH  11  14
ATOM     12  C   ALA A   1     -20.269  -9.215 -22.195  0.00  0.00    +0.238 C 
ATOM     13  O   ALA A   1     -20.117 -10.334 -21.700  0.00  0.00    -0.274 OA
ATOM     14  N   VAL A   2     -21.188  -8.354 -21.779  0.00  0.00    -0.297 N 
ATOM     15  H   VAL A   2     -21.173  -7.382 -22.148  0.00  0.00    +0.150 HD
BRANCH  12  16
ATOM     16  CA  ALA A   1     -19.399  -8.754 -23.359  0.00  0.00    +0.145 C 
ATOM     17  CB  ALA A   1     -19.955  -9.305 -24.679  0.00  0.00    +0.028 C 
BRANCH  16  18
ATOM     18  N   ALA A   1     -18.006  -9.166 -23.191  0.00  0.00    -0.238 NA
ATOM     19  H   ALA A   1     -17.795 -10.146 -22.913  0.00  0.00    +0.142 HD
ENDBRANCH  16  18
ENDBRANCH  12  16
ENDBRANCH  11  14
BRANCH  11  20
ATOM     20  CB  VAL A   2     -23.085  -7.514 -20.373  0.00  0.00    +0.027 C 
ATOM     21  CG2 VAL A   2     -24.193  -7.939 -19.389  0.00  0.00    +0.002 C 
ATOM     22  CG1 VAL A   2     -22.227  -6.423 -19.734  0.00  0.00    +0.002 C 
ENDBRANCH  11  20
ENDBRANCH   7  11
ENDBRANCH   6   8
BRANCH   6  23
ATOM     23  CB  ASP A   3     -24.230 -13.138 -20.273  0.00  0.00    +0.143 C 
BRANCH  23  24
ATOM     24  CG  ASP A   3     -25.332 -14.152 -20.556  0.00  0.00    +0.367 C 
ATOM     25  OD2 ASP A   3     -25.287 -15.242 -19.956  0.00  0.00    -0.246 OA
ATOM     26  OD1 ASP A   3     -26.246 -13.871 -21.362  0.00  0.00    -0.246 OA
ENDBRANCH  23  24
ENDBRANCH   6  23
ENDBRANCH   2   6
ENDBRANCH   1   4
BRANCH   1  27
ATOM     27  C   LYS A   4     -28.836 -10.784 -20.732  0.00  0.00    +0.241 C 
ATOM     28  O   LYS A   4     -29.763 -10.238 -20.137  0.00  0.00    -0.273 OA
ATOM     29  N   LYS A   5     -28.716 -12.106 -20.834  0.00  0.00    -0.297 N 
ATOM     30  H   LYS A   5     -27.949 -12.497 -21.417  0.00  0.00    +0.150 HD
BRANCH  29  31
ATOM     31  CA  LYS A   5     -29.628 -13.029 -20.153  0.00  0.00    +0.149 C 
BRANCH  31  32
ATOM     32  C   LYS A   5     -29.193 -13.328 -18.705  0.00  0.00    +0.241 C 
ATOM     33  O   LYS A   5     -29.965 -13.883 -17.927  0.00  0.00    -0.273 OA
ATOM     34  N   ASN A   6     -27.947 -12.984 -18.370  0.00  0.00    -0.298 N 
ATOM     35  H   ASN A   6     -27.341 -12.563 -19.102  0.00  0.00    +0.150 HD
BRANCH  34  36
ATOM     36  CA  ASN A   6     -27.385 -13.167 -17.027  0.00  0.00    +0.146 C 
BRANCH  36  37
ATOM     37  C   ASN A   6     -26.432 -11.996 -16.773  0.00  0.00    +0.227 C 
ATOM     38  O   ASN A   6     -25.218 -12.200 -16.679  0.00  0.00    -0.286 OA
ENDBRANCH  36  37
BRANCH  36  39
ATOM     39  CB  ASN A   6     -26.594 -14.482 -16.931  0.00  0.00    +0.112 C 
BRANCH  39  40
ATOM     40  CG  ASN A   6     -27.458 -15.715 -17.132  0.00  0.00    +0.222 C 
ATOM     41  OD1 ASN A   6     -28.224 -16.101 -16.254  0.00  0.00    -0.275 OA
ATOM     42  ND2 ASN A   6     -27.314 -16.353 -18.288  0.00  0.00    -0.329 N 
ATOM     43 HD21 ASN A   6     -27.862 -17.216 -18.477  0.00  0.00    +0.145 HD
ATOM     44 HD22 ASN A   6     -26.653 -15.990 -19.004  0.00  0.00    +0.145 HD
ENDBRANCH  39  40
ENDBRANCH  36  39
ENDBRANCH  34  36
ENDBRANCH  31  32
BRANCH  31  45
ATOM     45  CB  LYS A   5     -29.749 -14.336 -20.950  0.00  0.00    +0.029 C 
BRANCH  45  46
ATOM     46  CG  LYS A   5     -30.214 -14.137 -22.393  0.00  0.00    +0.000 C 
BRANCH  46  47
ATOM     47  CD  LYS A   5     -30.251 -15.438 -23.185  0.00  0.00    -0.024 C 
BRANCH  47  48
ATOM     48  CE  LYS A   5     -31.628 -16.083 -23.138  0.00  0.00    -0.086 C 
BRANCH  48  49
ATOM     49  NZ  LYS A   5     -31.687 -17.304 -23.990  0.00  0.00    +0.380 N 
ATOM     50  HZ1 LYS A   5     -30.987 -17.995 -23.652  0.00  0.00    -0.089 HD
ATOM     51  HZ2 LYS A   5     -32.639 -17.718 -23.935  0.00  0.00    -0.089 HD
ATOM     52  HZ3 LYS A   5     -31.476 -17.048 -24.976  0.00  0.00    -0.089 HD
ENDBRANCH  48  49
ENDBRANCH  47  48
ENDBRANCH  46  47
ENDBRANCH  45  46
ENDBRANCH  31  45
ENDBRANCH  29  31
ENDBRANCH   1  27
BRANCH   1  53
ATOM     53  CB  LYS A   4     -28.237  -9.264 -22.670  0.00  0.00    +0.029 C 
BRANCH  53  54
ATOM     54  CG  LYS A   4     -27.346  -8.105 -23.050  0.00  0.00    +0.000 C 
BRANCH  54  55
ATOM     55  CD  LYS A   4     -27.805  -7.384 -24.289  0.00  0.00    -0.024 C 
BRANCH  55  56
ATOM     56  CE  LYS A   4     -26.963  -6.135 -24.470  0.00  0.00    -0.086 C 
BRANCH  56  57
ATOM     57  NZ  LYS A   4     -27.442  -5.308 -25.594  0.00  0.00    +0.380 N 
ATOM     58  HZ1 LYS A   4     -28.424  -5.017 -25.415  0.00  0.00    -0.089 HD
ATOM     59  HZ2 LYS A   4     -26.840  -4.465 -25.684  0.00  0.00    -0.089 HD
ATOM     60  HZ3 LYS A   4     -27.398  -5.862 -26.473  0.00  0.00    -0.089 HD
ENDBRANCH  56  57
ENDBRANCH  55  56
ENDBRANCH  54  55
ENDBRANCH  53  54
ENDBRANCH   1  53
TORSDOF 27
REMARK  Name = ../refined-set-2016/2r58/2r58_pocket.pdb
REMARK  84 active torsions:
REMARK  status: ('A' for Active; 'I' for Inactive)
REMARK    1  A    between atoms: _1  and  _3
REMARK    2  A    between atoms: _3  and  _4
REMARK    3  A    between atoms: _7  and  _9
REMARK    4  A    between atoms: _9  and  _10
REMARK    5  A    between atoms: _9  and  _12
REMARK    6  A    between atoms: _15  and  _17
REMARK    7  A    between atoms: _17  and  _18
REMARK    8  A    between atoms: _17  and  _20
REMARK    9  A    between atoms: _20  and  _21
REMARK   10  A    between atoms: _24  and  _26
REMARK   11  A    between atoms: _26  and  _27
REMARK   12  A    between atoms: _26  and  _29
REMARK   13  A    between atoms: _29  and  _30
REMARK   14  A    between atoms: _30  and  _31
REMARK   15  A    between atoms: _31  and  _32
REMARK   16  A    between atoms: _32  and  _33
REMARK   17  A    between atoms: _37  and  _39
REMARK   18  A    between atoms: _39  and  _40
REMARK   19  A    between atoms: _39  and  _42
REMARK   20  A    between atoms: _42  and  _43
REMARK   21  A    between atoms: _43  and  _44
REMARK   22  A    between atoms: _44  and  _45
REMARK   23  A    between atoms: _45  and  _46
REMARK   24  A    between atoms: _50  and  _52
REMARK   25  A    between atoms: _52  and  _53
REMARK   26  A    between atoms: _52  and  _55
REMARK   27  A    between atoms: _55  and  _56
REMARK   28  A    between atoms: _61  and  _63
REMARK   29  A    between atoms: _63  and  _64
REMARK   30  A    between atoms: _63  and  _66
REMARK   31  A    between atoms: _66  and  _67
REMARK   32  A    between atoms: _70  and  _72
REMARK   33  A    between atoms: _72  and  _73
REMARK   34  A    between atoms: _72  and  _75
REMARK   35  A    between atoms: _75  and  _76
REMARK   36  A    between atoms: _79  and  _81
REMARK   37  A    between atoms: _81  and  _82
REMARK   38  A    between atoms: _81  and  _84
REMARK   39  A    between atoms: _86  and  _88
REMARK   40  A    between atoms: _88  and  _89
REMARK   41  A    between atoms: _88  and  _91
REMARK   42  A    between atoms: _93  and  _95
REMARK   43  A    between atoms: _95  and  _96
REMARK   44  A    between atoms: _95  and  _98
REMARK   45  A    between atoms: _98  and  _99
REMARK   46  A    between atoms: _102  and  _104
REMARK   47  A    between atoms: _104  and  _105
REMARK   48  A    between atoms: _104  and  _107
REMARK   49  A    between atoms: _107  and  _108
REMARK   50  A    between atoms: _114  and  _116
REMARK   51  A    between atoms: _116  and  _117
REMARK   52  A    between atoms: _116  and  _119
REMARK   53  A    between atoms: _119  and  _120
REMARK   54  A    between atoms: _123  and  _125
REMARK   55  A    between atoms: _125  and  _126
REMARK   56  A    between atoms: _128  and  _130
REMARK   57  A    between atoms: _130  and  _131
REMARK   58  A    between atoms: _130  and  _133
REMARK   59  A    between atoms: _133  and  _134
REMARK   60  A    between atoms: _144  and  _146
REMARK   61  A    between atoms: _146  and  _147
REMARK   62  A    between atoms: _146  and  _149
REMARK   63  A    between atoms: _149  and  _150
REMARK   64  A    between atoms: _150  and  _151
REMARK   65  A    between atoms: _151  and  _152
REMARK   66  A    between atoms: _161  and  _163
REMARK   67  A    between atoms: _163  and  _164
REMARK   68  A    between atoms: _167  and  _169
REMARK   69  A    between atoms: _169  and  _170
REMARK   70  A    between atoms: _169  and  _172
REMARK   71  A    between atoms: _172  and  _173
REMARK   72  A    between atoms: _179  and  _181
REMARK   73  A    between atoms: _181  and  _182
REMARK   74  A    between atoms: _181  and  _184
REMARK   75  A    between atoms: _184  and  _185
REMARK   76  A    between atoms: _188  and  _190
REMARK   77  A    between atoms: _190  and  _191
REMARK   78  A    between atoms: _190  and  _193
REMARK   79  A    between atoms: _193  and  _194
REMARK   80  A    between atoms: _194  and  _195
REMARK   81  A    between atoms: _201  and  _202
REMARK   82  A    between atoms: _208  and  _209
REMARK   83  A    between atoms: _214  and  _216
REMARK   84  A    between atoms: _216  and  _217
REMARK                            x       y       z     vdW  Elec       q    Type
REMARK                         _______ _______ _______ _____ _____    ______ ____
ROOT
ATOM      1  CA  ILE A   2     -19.167 -10.446 -18.531  0.00  0.00    +0.148 C 
ENDROOT
BRANCH   1   3
ATOM      2  C   LEU A   1     -21.160 -11.159 -17.287  0.00  0.00    +0.238 C 
ATOM      3  N   ILE A   2     -19.841 -10.982 -17.345  0.00  0.00    -0.297 N 
ATOM      4  H   ILE A   2     -19.267 -11.234 -16.516  0.00  0.00    +0.150 HD
ATOM      5  O   LEU A   1     -21.949 -10.695 -18.122  0.00  0.00    -0.274 OA
BRANCH   2   6
ATOM      6  CA  LEU A   1     -21.665 -11.954 -16.078  0.00  0.00    +0.145 C 
BRANCH   6   7
ATOM      7  N   LEU A   1     -22.801 -11.341 -15.386  0.00  0.00    -0.238 NA
ATOM      8  H   LEU A   1     -23.761 -11.563 -15.718  0.00  0.00    +0.142 HD
ENDBRANCH   6   7
BRANCH   6   9
ATOM      9  CB  LEU A   1     -22.016 -13.387 -16.499  0.00  0.00    +0.026 C 
BRANCH   9  10
ATOM     10  CG  LEU A   1     -22.617 -14.332 -15.453  0.00  0.00    +0.002 C 
ATOM     11  CD2 LEU A   1     -21.664 -14.550 -14.280  0.00  0.00    +0.000 C 
ATOM     12  CD1 LEU A   1     -22.984 -15.668 -16.104  0.00  0.00    +0.000 C 
ENDBRANCH   9  10
ENDBRANCH   6   9
ENDBRANCH   2   6
ENDBRANCH   1   3
BRANCH   1  13
ATOM     13  C   ILE A   2     -18.232 -11.541 -18.996  0.00  0.00    +0.241 C 
ATOM     14  O   ILE A   2     -17.453 -12.073 -18.202  0.00  0.00    -0.273 OA
ATOM     15  N   CYS A   3     -18.343 -11.890 -20.277  0.00  0.00    -0.296 N 
ATOM     16  H   CYS A   3     -18.867 -11.267 -20.924  0.00  0.00    +0.150 HD
BRANCH  15  17
ATOM     17  CA  CYS A   3     -17.756 -13.114 -20.802  0.00  0.00    +0.160 C 
BRANCH  17  18
ATOM     18  C   CYS A   3     -16.937 -12.919 -22.059  0.00  0.00    +0.242 C 
ATOM     19  N   CYS A   4     -16.065 -13.892 -22.298  0.00  0.00    -0.297 N 
ATOM     20  H   CYS A   4     -15.891 -14.592 -21.549  0.00  0.00    +0.150 HD
ATOM     21  O   CYS A   3     -17.092 -11.937 -22.788  0.00  0.00    -0.273 OA
BRANCH  19  22
ATOM     22  CA  CYS A   4     -15.345 -14.030 -23.544  0.00  0.00    +0.149 C 
BRANCH  22  23
ATOM     23  CB  CYS A   4     -14.527 -15.325 -23.470  0.00  0.00    +0.096 C 
ATOM     24  SG  CYS A   4     -13.419 -15.516 -24.787  0.00  0.00    -0.080 S 
ENDBRANCH  22  23
BRANCH  22  25
ATOM     25  C   CYS A   4     -16.318 -14.068 -24.736  0.00  0.00    +0.228 C 
ATOM     26  O   CYS A   4     -17.245 -14.879 -24.765  0.00  0.00    -0.286 OA
ENDBRANCH  22  25
ENDBRANCH  19  22
ENDBRANCH  17  18
BRANCH  17  27
ATOM     27  CB  CYS A   3     -18.858 -14.132 -21.101  0.00  0.00    +0.098 C 
ATOM     28  SG  CYS A   3     -20.224 -14.075 -19.944  0.00  0.00    -0.080 S 
ENDBRANCH  17  27
ENDBRANCH  15  17
ENDBRANCH   1  13
BRANCH   1  29
ATOM     29  CB  ILE A   2     -18.380  -9.141 -18.254  0.00  0.00    +0.027 C 
ATOM     30  CG2 ILE A   2     -17.610  -8.704 -19.518  0.00  0.00    +0.002 C 
BRANCH  29  31
ATOM     31  CG1 ILE A   2     -19.339  -8.036 -17.782  0.00  0.00    +0.002 C 
ATOM     32  CD1 ILE A   2     -18.665  -6.757 -17.327  0.00  0.00    +0.000 C 
ENDBRANCH  29  31
ENDBRANCH   1  29
TORSDOF 14
REMARK  Name = ../refined-set-2016/2r58/2r58_pocket.pdb
REMARK  84 active torsions:
REMARK  status: ('A' for Active; 'I' for Inactive)
REMARK    1  A    between atoms: _1  and  _3
REMARK    2  A    between atoms: _3  and  _4
REMARK    3  A    between atoms: _7  and  _9
REMARK    4  A    between atoms: _9  and  _10
REMARK    5  A    between atoms: _9  and  _12
REMARK    6  A    between atoms: _15  and  _17
REMARK    7  A    between atoms: _17  and  _18
REMARK    8  A    between atoms: _17  and  _20
REMARK    9  A    between atoms: _20  and  _21
REMARK   10  A    between atoms: _24  and  _26
REMARK   11  A    between atoms: _26  and  _27
REMARK   12  A    between atoms: _26  and  _29
REMARK   13  A    between atoms: _29  and  _30
REMARK   14  A    between atoms: _30  and  _31
REMARK   15  A    between atoms: _31  and  _32
REMARK   16  A    between atoms: _32  and  _33
REMARK   17  A    between atoms: _37  and  _39
REMARK   18  A    between atoms: _39  and  _40
REMARK   19  A    between atoms: _39  and  _42
REMARK   20  A    between atoms: _42  and  _43
REMARK   21  A    between atoms: _43  and  _44
REMARK   22  A    between atoms: _44  and  _45
REMARK   23  A    between atoms: _45  and  _46
REMARK   24  A    between atoms: _50  and  _52
REMARK   25  A    between atoms: _52  and  _53
REMARK   26  A    between atoms: _52  and  _55
REMARK   27  A    between atoms: _55  and  _56
REMARK   28  A    between atoms: _61  and  _63
REMARK   29  A    between atoms: _63  and  _64
REMARK   30  A    between atoms: _63  and  _66
REMARK   31  A    between atoms: _66  and  _67
REMARK   32  A    between atoms: _70  and  _72
REMARK   33  A    between atoms: _72  and  _73
REMARK   34  A    between atoms: _72  and  _75
REMARK   35  A    between atoms: _75  and  _76
REMARK   36  A    between atoms: _79  and  _81
REMARK   37  A    between atoms: _81  and  _82
REMARK   38  A    between atoms: _81  and  _84
REMARK   39  A    between atoms: _86  and  _88
REMARK   40  A    between atoms: _88  and  _89
REMARK   41  A    between atoms: _88  and  _91
REMARK   42  A    between atoms: _93  and  _95
REMARK   43  A    between atoms: _95  and  _96
REMARK   44  A    between atoms: _95  and  _98
REMARK   45  A    between atoms: _98  and  _99
REMARK   46  A    between atoms: _102  and  _104
REMARK   47  A    between atoms: _104  and  _105
REMARK   48  A    between atoms: _104  and  _107
REMARK   49  A    between atoms: _107  and  _108
REMARK   50  A    between atoms: _114  and  _116
REMARK   51  A    between atoms: _116  and  _117
REMARK   52  A    between atoms: _116  and  _119
REMARK   53  A    between atoms: _119  and  _120
REMARK   54  A    between atoms: _123  and  _125
REMARK   55  A    between atoms: _125  and  _126
REMARK   56  A    between atoms: _128  and  _130
REMARK   57  A    between atoms: _130  and  _131
REMARK   58  A    between atoms: _130  and  _133
REMARK   59  A    between atoms: _133  and  _134
REMARK   60  A    between atoms: _144  and  _146
REMARK   61  A    between atoms: _146  and  _147
REMARK   62  A    between atoms: _146  and  _149
REMARK   63  A    between atoms: _149  and  _150
REMARK   64  A    between atoms: _150  and  _151
REMARK   65  A    between atoms: _151  and  _152
REMARK   66  A    between atoms: _161  and  _163
REMARK   67  A    between atoms: _163  and  _164
REMARK   68  A    between atoms: _167  and  _169
REMARK   69  A    between atoms: _169  and  _170
REMARK   70  A    between atoms: _169  and  _172
REMARK   71  A    between atoms: _172  and  _173
REMARK   72  A    between atoms: _179  and  _181
REMARK   73  A    between atoms: _181  and  _182
REMARK   74  A    between atoms: _181  and  _184
REMARK   75  A    between atoms: _184  and  _185
REMARK   76  A    between atoms: _188  and  _190
REMARK   77  A    between atoms: _190  and  _191
REMARK   78  A    between atoms: _190  and  _193
REMARK   79  A    between atoms: _193  and  _194
REMARK   80  A    between atoms: _194  and  _195
REMARK   81  A    between atoms: _201  and  _202
REMARK   82  A    between atoms: _208  and  _209
REMARK   83  A    between atoms: _214  and  _216
REMARK   84  A    between atoms: _216  and  _217
REMARK                            x       y       z     vdW  Elec       q    Type
REMARK                         _______ _______ _______ _____ _____    ______ ____
ROOT
ATOM      1  C   GLY A   4     -19.578 -22.190 -25.552  0.00  0.00    +0.243 C 
ATOM      2  O   GLY A   4     -19.923 -23.140 -24.854  0.00  0.00    -0.273 OA
ATOM      3  N   TRP A   5     -20.427 -21.260 -25.976  0.00  0.00    -0.297 N 
ATOM      4  H   TRP A   5     -20.069 -20.475 -26.557  0.00  0.00    +0.150 HD
ENDROOT
BRANCH   3   5
ATOM      5  CA  TRP A   5     -21.850 -21.311 -25.648  0.00  0.00    +0.153 C 
BRANCH   5   6
ATOM      6  C   TRP A   5     -22.717 -21.370 -26.900  0.00  0.00    +0.241 C 
ATOM      7  N   ARG A   6     -23.883 -21.995 -26.765  0.00  0.00    -0.298 N 
ATOM      8  H   ARG A   6     -24.116 -22.430 -25.850  0.00  0.00    +0.150 HD
ATOM      9  O   TRP A   5     -22.339 -20.857 -27.960  0.00  0.00    -0.273 OA
BRANCH   7  10
ATOM     10  CA  ARG A   6     -24.851 -22.092 -27.859  0.00  0.00    +0.137 C 
BRANCH  10  11
ATOM     11  C   ARG A   6     -25.293 -20.699 -28.315  0.00  0.00    +0.227 C 
ATOM     12  O   ARG A   6     -25.305 -19.755 -27.521  0.00  0.00    -0.286 OA
ENDBRANCH  10  11
BRANCH  10  13
ATOM     13  CB  ARG A   6     -26.053 -22.963 -27.451  0.00  0.00    +0.031 C 
BRANCH  13  14
ATOM     14  CG  ARG A   6     -26.759 -22.539 -26.158  0.00  0.00    +0.045 C 
BRANCH  14  15
ATOM     15  CD  ARG A   6     -27.550 -23.698 -25.543  0.00  0.00    +0.174 C 
BRANCH  15  16
ATOM     16  NE  ARG A   6     -28.375 -23.262 -24.413  0.00  0.00    -0.265 N 
ATOM     17  CZ  ARG A   6     -27.942 -23.122 -23.160  0.00  0.00    +0.342 C 
ATOM     18  NH2 ARG A   6     -28.779 -22.715 -22.212  0.00  0.00    -0.292 N 
ATOM     19 HH21 ARG A   6     -28.443 -22.605 -21.234  0.00  0.00    +0.255 HD
ATOM     20 HH22 ARG A   6     -29.770 -22.506 -22.448  0.00  0.00    +0.255 HD
ATOM     21  NH1 ARG A   6     -26.677 -23.383 -22.847  0.00  0.00    -0.292 N 
ATOM     22 HH11 ARG A   6     -26.350 -23.270 -21.866  0.00  0.00    +0.255 HD
ATOM     23 HH12 ARG A   6     -26.014 -23.700 -23.583  0.00  0.00    +0.255 HD
ATOM     24  HE  ARG A   6     -29.374 -23.045 -24.603  0.00  0.00    +0.259 HD
ENDBRANCH  15  16
ENDBRANCH  14  15
ENDBRANCH  13  14
ENDBRANCH  10  13
ENDBRANCH   7  10
ENDBRANCH   5   6
BRANCH   5  25
ATOM     25  CB  TRP A   5     -22.259 -20.112 -24.788  0.00  0.00    +0.057 C 
BRANCH  25  26
ATOM     26  CG  TRP A   5     -21.619 -20.090 -23.427  0.00  0.00    -0.002 A 
ATOM     27  CD2 TRP A   5     -22.087 -20.752 -22.243  0.00  0.00    +0.013 A 
ATOM     28  CE2 TRP A   5     -21.172 -20.448 -21.209  0.00  0.00    +0.056 A 
ATOM     29  CZ2 TRP A   5     -21.325 -20.934 -19.904  0.00  0.00    +0.017 A 
ATOM     30  CH2 TRP A   5     -22.412 -21.730 -19.647  0.00  0.00    +0.001 A 
ATOM     31  CZ3 TRP A   5     -23.340 -22.053 -20.654  0.00  0.00    +0.000 A 
ATOM     32  NE1 TRP A   5     -20.204 -19.637 -21.743  0.00  0.00    -0.352 N 
ATOM     33  HE1 TRP A   5     -19.393 -19.244 -21.225  0.00  0.00    +0.166 HD
ATOM     34  CE3 TRP A   5     -23.189 -21.571 -21.954  0.00  0.00    +0.001 A 
ATOM     35  CD1 TRP A   5     -20.477 -19.428 -23.069  0.00  0.00    +0.068 A 
ENDBRANCH  25  26
ENDBRANCH   5  25
ENDBRANCH   3   5
BRANCH   1  36
ATOM     36  CA  GLY A   4     -18.127 -22.029 -25.967  0.00  0.00    +0.176 C 
BRANCH  36  39
ATOM     37  C   ASP A   3     -17.582 -19.646 -26.148  0.00  0.00    +0.241 C 
ATOM     38  O   ASP A   3     -17.657 -19.459 -24.931  0.00  0.00    -0.273 OA
ATOM     39  N   GLY A   4     -17.833 -20.817 -26.729  0.00  0.00    -0.295 N 
ATOM     40  H   GLY A   4     -17.819 -20.872 -27.767  0.00  0.00    +0.150 HD
BRANCH  37  41
ATOM     41  CA  ASP A   3     -17.233 -18.497 -27.085  0.00  0.00    +0.160 C 
BRANCH  41  43
ATOM     42  C   PHE A   2     -19.434 -17.453 -26.852  0.00  0.00    +0.241 C 
ATOM     43  N   ASP A   3     -18.107 -17.357 -26.811  0.00  0.00    -0.297 N 
ATOM     44  H   ASP A   3     -17.677 -16.440 -26.576  0.00  0.00    +0.150 HD
ATOM     45  O   PHE A   2     -20.034 -18.498 -27.075  0.00  0.00    -0.273 OA
BRANCH  42  46
ATOM     46  CA  PHE A   2     -20.192 -16.156 -26.638  0.00  0.00    +0.153 C 
BRANCH  46  48
ATOM     47  C   THR A   1     -20.475 -14.881 -28.692  0.00  0.00    +0.241 C 
ATOM     48  N   PHE A   2     -20.948 -15.768 -27.826  0.00  0.00    -0.297 N 
ATOM     49  H   PHE A   2     -21.880 -16.197 -27.997  0.00  0.00    +0.150 HD
ATOM     50  O   THR A   1     -19.341 -14.400 -28.618  0.00  0.00    -0.274 OA
BRANCH  47  51
ATOM     51  CA  THR A   1     -21.409 -14.483 -29.821  0.00  0.00    +0.172 C 
BRANCH  51  52
ATOM     52  N   THR A   1     -21.225 -13.071 -30.136  0.00  0.00    -0.236 NA
ATOM     53  H   THR A   1     -20.272 -12.731 -30.375  0.00  0.00    +0.142 HD
ENDBRANCH  51  52
BRANCH  51  54
ATOM     54  CB  THR A   1     -21.148 -15.406 -31.042  0.00  0.00    +0.135 C 
ATOM     55  CG2 THR A   1     -22.033 -15.015 -32.208  0.00  0.00    +0.034 C 
BRANCH  54  56
ATOM     56  OG1 THR A   1     -19.773 -15.320 -31.439  0.00  0.00    -0.383 OA
ATOM     57  HG1 THR A   1     -19.560 -14.385 -31.686  0.00  0.00    +0.210 HD
ENDBRANCH  54  56
ENDBRANCH  51  54
ENDBRANCH  47  51
ENDBRANCH  46  48
BRANCH  46  58
ATOM     58  CB  PHE A   2     -21.115 -16.204 -25.421  0.00  0.00    +0.055 C 
BRANCH  58  59
ATOM     59  CG  PHE A   2     -21.617 -14.855 -25.032  0.00  0.00    -0.020 A 
ATOM     60  CD2 PHE A   2     -20.919 -14.088 -24.108  0.00  0.00    -0.004 A 
ATOM     61  CE2 PHE A   2     -21.352 -12.810 -23.777  0.00  0.00    -0.000 A 
ATOM     62  CZ  PHE A   2     -22.482 -12.281 -24.397  0.00  0.00    -0.000 A 
ATOM     63  CE1 PHE A   2     -23.173 -13.028 -25.342  0.00  0.00    -0.000 A 
ATOM     64  CD1 PHE A   2     -22.736 -14.305 -25.660  0.00  0.00    -0.004 A 
ENDBRANCH  58  59
ENDBRANCH  46  58
ENDBRANCH  42  46
ENDBRANCH  41  43
BRANCH  41  65
ATOM     65  CB  ASP A   3     -15.759 -18.107 -26.915  0.00  0.00    +0.143 C 
BRANCH  65  66
ATOM     66  CG  ASP A   3     -15.324 -16.977 -27.851  0.00  0.00    +0.367 C 
ATOM     67  OD2 ASP A   3     -14.104 -16.839 -28.062  0.00  0.00    -0.246 OA
ATOM     68  OD1 ASP A   3     -16.178 -16.219 -28.365  0.00  0.00    -0.246 OA
ENDBRANCH  65  66
ENDBRANCH  41  65
ENDBRANCH  37  41
ENDBRANCH  36  39
ENDBRANCH   1  36
TORSDOF 24
REMARK  Name = ../refined-set-2016/2r58/2r58_pocket.pdb
REMARK  84 active torsions:
REMARK  status: ('A' for Active; 'I' for Inactive)
REMARK    1  A    between atoms: _1  and  _3
REMARK    2  A    between atoms: _3  and  _4
REMARK    3  A    between atoms: _7  and  _9
REMARK    4  A    between atoms: _9  and  _10
REMARK    5  A    between atoms: _9  and  _12
REMARK    6  A    between atoms: _15  and  _17
REMARK    7  A    between atoms: _17  and  _18
REMARK    8  A    between atoms: _17  and  _20
REMARK    9  A    between atoms: _20  and  _21
REMARK   10  A    between atoms: _24  and  _26
REMARK   11  A    between atoms: _26  and  _27
REMARK   12  A    between atoms: _26  and  _29
REMARK   13  A    between atoms: _29  and  _30
REMARK   14  A    between atoms: _30  and  _31
REMARK   15  A    between atoms: _31  and  _32
REMARK   16  A    between atoms: _32  and  _33
REMARK   17  A    between atoms: _37  and  _39
REMARK   18  A    between atoms: _39  and  _40
REMARK   19  A    between atoms: _39  and  _42
REMARK   20  A    between atoms: _42  and  _43
REMARK   21  A    between atoms: _43  and  _44
REMARK   22  A    between atoms: _44  and  _45
REMARK   23  A    between atoms: _45  and  _46
REMARK   24  A    between atoms: _50  and  _52
REMARK   25  A    between atoms: _52  and  _53
REMARK   26  A    between atoms: _52  and  _55
REMARK   27  A    between atoms: _55  and  _56
REMARK   28  A    between atoms: _61  and  _63
REMARK   29  A    between atoms: _63  and  _64
REMARK   30  A    between atoms: _63  and  _66
REMARK   31  A    between atoms: _66  and  _67
REMARK   32  A    between atoms: _70  and  _72
REMARK   33  A    between atoms: _72  and  _73
REMARK   34  A    between atoms: _72  and  _75
REMARK   35  A    between atoms: _75  and  _76
REMARK   36  A    between atoms: _79  and  _81
REMARK   37  A    between atoms: _81  and  _82
REMARK   38  A    between atoms: _81  and  _84
REMARK   39  A    between atoms: _86  and  _88
REMARK   40  A    between atoms: _88  and  _89
REMARK   41  A    between atoms: _88  and  _91
REMARK   42  A    between atoms: _93  and  _95
REMARK   43  A    between atoms: _95  and  _96
REMARK   44  A    between atoms: _95  and  _98
REMARK   45  A    between atoms: _98  and  _99
REMARK   46  A    between atoms: _102  and  _104
REMARK   47  A    between atoms: _104  and  _105
REMARK   48  A    between atoms: _104  and  _107
REMARK   49  A    between atoms: _107  and  _108
REMARK   50  A    between atoms: _114  and  _116
REMARK   51  A    between atoms: _116  and  _117
REMARK   52  A    between atoms: _116  and  _119
REMARK   53  A    between atoms: _119  and  _120
REMARK   54  A    between atoms: _123  and  _125
REMARK   55  A    between atoms: _125  and  _126
REMARK   56  A    between atoms: _128  and  _130
REMARK   57  A    between atoms: _130  and  _131
REMARK   58  A    between atoms: _130  and  _133
REMARK   59  A    between atoms: _133  and  _134
REMARK   60  A    between atoms: _144  and  _146
REMARK   61  A    between atoms: _146  and  _147
REMARK   62  A    between atoms: _146  and  _149
REMARK   63  A    between atoms: _149  and  _150
REMARK   64  A    between atoms: _150  and  _151
REMARK   65  A    between atoms: _151  and  _152
REMARK   66  A    between atoms: _161  and  _163
REMARK   67  A    between atoms: _163  and  _164
REMARK   68  A    between atoms: _167  and  _169
REMARK   69  A    between atoms: _169  and  _170
REMARK   70  A    between atoms: _169  and  _172
REMARK   71  A    between atoms: _172  and  _173
REMARK   72  A    between atoms: _179  and  _181
REMARK   73  A    between atoms: _181  and  _182
REMARK   74  A    between atoms: _181  and  _184
REMARK   75  A    between atoms: _184  and  _185
REMARK   76  A    between atoms: _188  and  _190
REMARK   77  A    between atoms: _190  and  _191
REMARK   78  A    between atoms: _190  and  _193
REMARK   79  A    between atoms: _193  and  _194
REMARK   80  A    between atoms: _194  and  _195
REMARK   81  A    between atoms: _201  and  _202
REMARK   82  A    between atoms: _208  and  _209
REMARK   83  A    between atoms: _214  and  _216
REMARK   84  A    between atoms: _216  and  _217
REMARK                            x       y       z     vdW  Elec       q    Type
REMARK                         _______ _______ _______ _____ _____    ______ ____
ROOT
ATOM      1  CA  PHE A   2     -26.847 -16.163 -25.810  0.00  0.00    +0.153 C 
ENDROOT
BRANCH   1   3
ATOM      2  C   ALA A   1     -28.582 -17.438 -26.946  0.00  0.00    +0.238 C 
ATOM      3  N   PHE A   2     -27.309 -17.313 -26.573  0.00  0.00    -0.297 N 
ATOM      4  H   PHE A   2     -26.629 -18.055 -26.833  0.00  0.00    +0.150 HD
ATOM      5  O   ALA A   1     -29.446 -16.601 -26.673  0.00  0.00    -0.274 OA
BRANCH   2   6
ATOM      6  CA  ALA A   1     -28.941 -18.692 -27.747  0.00  0.00    +0.145 C 
ATOM      7  CB  ALA A   1     -29.533 -19.748 -26.830  0.00  0.00    +0.028 C 
BRANCH   6   8
ATOM      8  N   ALA A   1     -27.804 -19.244 -28.491  0.00  0.00    -0.238 NA
ATOM      9  H   ALA A   1     -27.424 -20.168 -28.203  0.00  0.00    +0.142 HD
ENDBRANCH   6   8
ENDBRANCH   2   6
ENDBRANCH   1   3
BRANCH   1  10
ATOM     10  C   PHE A   2     -26.325 -15.048 -26.711  0.00  0.00    +0.241 C 
ATOM     11  O   PHE A   2     -25.909 -14.003 -26.221  0.00  0.00    -0.273 OA
ATOM     12  N   ASP A   3     -26.370 -15.263 -28.024  0.00  0.00    -0.298 N 
ATOM     13  H   ASP A   3     -26.739 -16.170 -28.373  0.00  0.00    +0.150 HD
BRANCH  12  14
ATOM     14  CA  ASP A   3     -25.916 -14.263 -28.993  0.00  0.00    +0.148 C 
BRANCH  14  15
ATOM     15  C   ASP A   3     -26.857 -13.072 -29.022  0.00  0.00    +0.227 C 
ATOM     16  O   ASP A   3     -28.027 -13.195 -28.676  0.00  0.00    -0.286 OA
ENDBRANCH  14  15
BRANCH  14  17
ATOM     17  CB  ASP A   3     -25.838 -14.860 -30.402  0.00  0.00    +0.142 C 
BRANCH  17  18
ATOM     18  CG  ASP A   3     -24.829 -15.984 -30.515  0.00  0.00    +0.367 C 
ATOM     19  OD2 ASP A   3     -24.127 -16.276 -29.520  0.00  0.00    -0.246 OA
ATOM     20  OD1 ASP A   3     -24.739 -16.573 -31.614  0.00  0.00    -0.246 OA
ENDBRANCH  17  18
ENDBRANCH  14  17
ENDBRANCH  12  14
ENDBRANCH   1  10
BRANCH   1  21
ATOM     21  CB  PHE A   2     -25.793 -16.579 -24.773  0.00  0.00    +0.055 C 
BRANCH  21  22
ATOM     22  CG  PHE A   2     -26.297 -17.583 -23.767  0.00  0.00    -0.020 A 
ATOM     23  CD2 PHE A   2     -27.027 -17.170 -22.658  0.00  0.00    -0.004 A 
ATOM     24  CE2 PHE A   2     -27.508 -18.097 -21.733  0.00  0.00    -0.000 A 
ATOM     25  CZ  PHE A   2     -27.259 -19.450 -21.911  0.00  0.00    -0.000 A 
ATOM     26  CE1 PHE A   2     -26.532 -19.878 -23.019  0.00  0.00    -0.000 A 
ATOM     27  CD1 PHE A   2     -26.060 -18.945 -23.943  0.00  0.00    -0.004 A 
ENDBRANCH  21  22
ENDBRANCH   1  21
TORSDOF 10
REMARK  Name = ../refined-set-2016/2r58/2r58_pocket.pdb
REMARK  84 active torsions:
REMARK  status: ('A' for Active; 'I' for Inactive)
REMARK    1  A    between atoms: _1  and  _3
REMARK    2  A    between atoms: _3  and  _4
REMARK    3  A    between atoms: _7  and  _9
REMARK    4  A    between atoms: _9  and  _10
REMARK    5  A    between atoms: _9  and  _12
REMARK    6  A    between atoms: _15  and  _17
REMARK    7  A    between atoms: _17  and  _18
REMARK    8  A    between atoms: _17  and  _20
REMARK    9  A    between atoms: _20  and  _21
REMARK   10  A    between atoms: _24  and  _26
REMARK   11  A    between atoms: _26  and  _27
REMARK   12  A    between atoms: _26  and  _29
REMARK   13  A    between atoms: _29  and  _30
REMARK   14  A    between atoms: _30  and  _31
REMARK   15  A    between atoms: _31  and  _32
REMARK   16  A    between atoms: _32  and  _33
REMARK   17  A    between atoms: _37  and  _39
REMARK   18  A    between atoms: _39  and  _40
REMARK   19  A    between atoms: _39  and  _42
REMARK   20  A    between atoms: _42  and  _43
REMARK   21  A    between atoms: _43  and  _44
REMARK   22  A    between atoms: _44  and  _45
REMARK   23  A    between atoms: _45  and  _46
REMARK   24  A    between atoms: _50  and  _52
REMARK   25  A    between atoms: _52  and  _53
REMARK   26  A    between atoms: _52  and  _55
REMARK   27  A    between atoms: _55  and  _56
REMARK   28  A    between atoms: _61  and  _63
REMARK   29  A    between atoms: _63  and  _64
REMARK   30  A    between atoms: _63  and  _66
REMARK   31  A    between atoms: _66  and  _67
REMARK   32  A    between atoms: _70  and  _72
REMARK   33  A    between atoms: _72  and  _73
REMARK   34  A    between atoms: _72  and  _75
REMARK   35  A    between atoms: _75  and  _76
REMARK   36  A    between atoms: _79  and  _81
REMARK   37  A    between atoms: _81  and  _82
REMARK   38  A    between atoms: _81  and  _84
REMARK   39  A    between atoms: _86  and  _88
REMARK   40  A    between atoms: _88  and  _89
REMARK   41  A    between atoms: _88  and  _91
REMARK   42  A    between atoms: _93  and  _95
REMARK   43  A    between atoms: _95  and  _96
REMARK   44  A    between atoms: _95  and  _98
REMARK   45  A    between atoms: _98  and  _99
REMARK   46  A    between atoms: _102  and  _104
REMARK   47  A    between atoms: _104  and  _105
REMARK   48  A    between atoms: _104  and  _107
REMARK   49  A    between atoms: _107  and  _108
REMARK   50  A    between atoms: _114  and  _116
REMARK   51  A    between atoms: _116  and  _117
REMARK   52  A    between atoms: _116  and  _119
REMARK   53  A    between atoms: _119  and  _120
REMARK   54  A    between atoms: _123  and  _125
REMARK   55  A    between atoms: _125  and  _126
REMARK   56  A    between atoms: _128  and  _130
REMARK   57  A    between atoms: _130  and  _131
REMARK   58  A    between atoms: _130  and  _133
REMARK   59  A    between atoms: _133  and  _134
REMARK   60  A    between atoms: _144  and  _146
REMARK   61  A    between atoms: _146  and  _147
REMARK   62  A    between atoms: _146  and  _149
REMARK   63  A    between atoms: _149  and  _150
REMARK   64  A    between atoms: _150  and  _151
REMARK   65  A    between atoms: _151  and  _152
REMARK   66  A    between atoms: _161  and  _163
REMARK   67  A    between atoms: _163  and  _164
REMARK   68  A    between atoms: _167  and  _169
REMARK   69  A    between atoms: _169  and  _170
REMARK   70  A    between atoms: _169  and  _172
REMARK   71  A    between atoms: _172  and  _173
REMARK   72  A    between atoms: _179  and  _181
REMARK   73  A    between atoms: _181  and  _182
REMARK   74  A    between atoms: _181  and  _184
REMARK   75  A    between atoms: _184  and  _185
REMARK   76  A    between atoms: _188  and  _190
REMARK   77  A    between atoms: _190  and  _191
REMARK   78  A    between atoms: _190  and  _193
REMARK   79  A    between atoms: _193  and  _194
REMARK   80  A    between atoms: _194  and  _195
REMARK   81  A    between atoms: _201  and  _202
REMARK   82  A    between atoms: _208  and  _209
REMARK   83  A    between atoms: _214  and  _216
REMARK   84  A    between atoms: _216  and  _217
REMARK                            x       y       z     vdW  Elec       q    Type
REMARK                         _______ _______ _______ _____ _____    ______ ____
ROOT
ATOM      1  C   GLN A   1     -15.182 -16.162 -18.839  0.00  0.00    +0.241 C 
ATOM      2  N   PRO A   2     -14.465 -17.282 -18.624  0.00  0.00    -0.272 N 
ATOM      3  CD  PRO A   2     -14.249 -17.938 -17.316  0.00  0.00    +0.094 C 
ATOM      4  CG  PRO A   2     -13.673 -19.279 -17.684  0.00  0.00    +0.024 C 
ATOM      5  CB  PRO A   2     -12.963 -19.054 -18.987  0.00  0.00    +0.031 C 
ATOM      6  CA  PRO A   2     -13.790 -17.986 -19.717  0.00  0.00    +0.152 C 
ATOM      7  O   GLN A   1     -15.181 -15.560 -19.923  0.00  0.00    -0.273 OA
ENDROOT
BRANCH   6   8
ATOM      8  C   PRO A   2     -14.826 -18.634 -20.655  0.00  0.00    +0.244 C 
ATOM      9  O   PRO A   2     -16.008 -18.688 -20.300  0.00  0.00    -0.273 OA
ATOM     10  N   PRO A   3     -14.408 -19.087 -21.856  0.00  0.00    -0.272 N 
ATOM     11  CD  PRO A   3     -13.075 -18.949 -22.474  0.00  0.00    +0.094 C 
ATOM     12  CG  PRO A   3     -13.262 -19.529 -23.856  0.00  0.00    +0.024 C 
ATOM     13  CB  PRO A   3     -14.444 -20.395 -23.820  0.00  0.00    +0.031 C 
ATOM     14  CA  PRO A   3     -15.353 -19.782 -22.745  0.00  0.00    +0.152 C 
BRANCH  14  15
ATOM     15  C   PRO A   3     -16.144 -20.900 -22.058  0.00  0.00    +0.241 C 
ATOM     16  O   PRO A   3     -15.663 -21.504 -21.094  0.00  0.00    -0.273 OA
ATOM     17  N   GLY A   4     -17.348 -21.168 -22.556  0.00  0.00    -0.296 N 
ATOM     18  H   GLY A   4     -17.741 -20.549 -23.294  0.00  0.00    +0.150 HD
BRANCH  17  19
ATOM     19  CA  GLY A   4     -18.133 -22.310 -22.092  0.00  0.00    +0.163 C 
BRANCH  19  20
ATOM     20  C   GLY A   4     -17.517 -23.640 -22.504  0.00  0.00    +0.229 C 
ATOM     21  O   GLY A   4     -16.634 -23.687 -23.366  0.00  0.00    -0.286 OA
ENDBRANCH  19  20
ENDBRANCH  17  19
ENDBRANCH  14  15
ENDBRANCH   6   8
BRANCH   1  22
ATOM     22  CA  GLN A   1     -15.997 -15.633 -17.653  0.00  0.00    +0.145 C 
BRANCH  22  23
ATOM     23  N   GLN A   1     -15.740 -14.223 -17.389  0.00  0.00    -0.238 NA
ATOM     24  H   GLN A   1     -16.464 -13.519 -17.639  0.00  0.00    +0.142 HD
ENDBRANCH  22  23
BRANCH  22  25
ATOM     25  CB  GLN A   1     -17.490 -15.876 -17.874  0.00  0.00    +0.036 C 
BRANCH  25  26
ATOM     26  CG  GLN A   1     -18.388 -15.340 -16.753  0.00  0.00    +0.087 C 
BRANCH  26  27
ATOM     27  CD  GLN A   1     -18.002 -15.829 -15.359  0.00  0.00    +0.219 C 
ATOM     28  OE1 GLN A   1     -17.807 -15.025 -14.436  0.00  0.00    -0.275 OA
ATOM     29  NE2 GLN A   1     -17.903 -17.143 -15.196  0.00  0.00    -0.329 N 
ATOM     30 HE21 GLN A   1     -17.653 -17.534 -14.265  0.00  0.00    +0.145 HD
ATOM     31 HE22 GLN A   1     -18.075 -17.781 -15.999  0.00  0.00    +0.145 HD
ENDBRANCH  26  27
ENDBRANCH  25  26
ENDBRANCH  22  25
ENDBRANCH   1  22
TORSDOF 9
REMARK  Name = ../refined-set-2016/2r58/2r58_pocket.pdb
REMARK  84 active torsions:
REMARK  status: ('A' for Active; 'I' for Inactive)
REMARK    1  A    between atoms: _1  and  _3
REMARK    2  A    between atoms: _3  and  _4
REMARK    3  A    between atoms: _7  and  _9
REMARK    4  A    between atoms: _9  and  _10
REMARK    5  A    between atoms: _9  and  _12
REMARK    6  A    between atoms: _15  and  _17
REMARK    7  A    between atoms: _17  and  _18
REMARK    8  A    between atoms: _17  and  _20
REMARK    9  A    between atoms: _20  and  _21
REMARK   10  A    between atoms: _24  and  _26
REMARK   11  A    between atoms: _26  and  _27
REMARK   12  A    between atoms: _26  and  _29
REMARK   13  A    between atoms: _29  and  _30
REMARK   14  A    between atoms: _30  and  _31
REMARK   15  A    between atoms: _31  and  _32
REMARK   16  A    between atoms: _32  and  _33
REMARK   17  A    between atoms: _37  and  _39
REMARK   18  A    between atoms: _39  and  _40
REMARK   19  A    between atoms: _39  and  _42
REMARK   20  A    between atoms: _42  and  _43
REMARK   21  A    between atoms: _43  and  _44
REMARK   22  A    between atoms: _44  and  _45
REMARK   23  A    between atoms: _45  and  _46
REMARK   24  A    between atoms: _50  and  _52
REMARK   25  A    between atoms: _52  and  _53
REMARK   26  A    between atoms: _52  and  _55
REMARK   27  A    between atoms: _55  and  _56
REMARK   28  A    between atoms: _61  and  _63
REMARK   29  A    between atoms: _63  and  _64
REMARK   30  A    between atoms: _63  and  _66
REMARK   31  A    between atoms: _66  and  _67
REMARK   32  A    between atoms: _70  and  _72
REMARK   33  A    between atoms: _72  and  _73
REMARK   34  A    between atoms: _72  and  _75
REMARK   35  A    between atoms: _75  and  _76
REMARK   36  A    between atoms: _79  and  _81
REMARK   37  A    between atoms: _81  and  _82
REMARK   38  A    between atoms: _81  and  _84
REMARK   39  A    between atoms: _86  and  _88
REMARK   40  A    between atoms: _88  and  _89
REMARK   41  A    between atoms: _88  and  _91
REMARK   42  A    between atoms: _93  and  _95
REMARK   43  A    between atoms: _95  and  _96
REMARK   44  A    between atoms: _95  and  _98
REMARK   45  A    between atoms: _98  and  _99
REMARK   46  A    between atoms: _102  and  _104
REMARK   47  A    between atoms: _104  and  _105
REMARK   48  A    between atoms: _104  and  _107
REMARK   49  A    between atoms: _107  and  _108
REMARK   50  A    between atoms: _114  and  _116
REMARK   51  A    between atoms: _116  and  _117
REMARK   52  A    between atoms: _116  and  _119
REMARK   53  A    between atoms: _119  and  _120
REMARK   54  A    between atoms: _123  and  _125
REMARK   55  A    between atoms: _125  and  _126
REMARK   56  A    between atoms: _128  and  _130
REMARK   57  A    between atoms: _130  and  _131
REMARK   58  A    between atoms: _130  and  _133
REMARK   59  A    between atoms: _133  and  _134
REMARK   60  A    between atoms: _144  and  _146
REMARK   61  A    between atoms: _146  and  _147
REMARK   62  A    between atoms: _146  and  _149
REMARK   63  A    between atoms: _149  and  _150
REMARK   64  A    between atoms: _150  and  _151
REMARK   65  A    between atoms: _151  and  _152
REMARK   66  A    between atoms: _161  and  _163
REMARK   67  A    between atoms: _163  and  _164
REMARK   68  A    between atoms: _167  and  _169
REMARK   69  A    between atoms: _169  and  _170
REMARK   70  A    between atoms: _169  and  _172
REMARK   71  A    between atoms: _172  and  _173
REMARK   72  A    between atoms: _179  and  _181
REMARK   73  A    between atoms: _181  and  _182
REMARK   74  A    between atoms: _181  and  _184
REMARK   75  A    between atoms: _184  and  _185
REMARK   76  A    between atoms: _188  and  _190
REMARK   77  A    between atoms: _190  and  _191
REMARK   78  A    between atoms: _190  and  _193
REMARK   79  A    between atoms: _193  and  _194
REMARK   80  A    between atoms: _194  and  _195
REMARK   81  A    between atoms: _201  and  _202
REMARK   82  A    between atoms: _208  and  _209
REMARK   83  A    between atoms: _214  and  _216
REMARK   84  A    between atoms: _216  and  _217
REMARK                            x       y       z     vdW  Elec       q    Type
REMARK                         _______ _______ _______ _____ _____    ______ ____
ROOT
ATOM      1  O   HOH     1     -18.062 -17.011 -23.398  0.00  0.00    +0.000 OA
ENDROOT
TORSDOF 0
REMARK  Name = ../refined-set-2016/2r58/2r58_pocket.pdb
REMARK  84 active torsions:
REMARK  status: ('A' for Active; 'I' for Inactive)
REMARK    1  A    between atoms: _1  and  _3
REMARK    2  A    between atoms: _3  and  _4
REMARK    3  A    between atoms: _7  and  _9
REMARK    4  A    between atoms: _9  and  _10
REMARK    5  A    between atoms: _9  and  _12
REMARK    6  A    between atoms: _15  and  _17
REMARK    7  A    between atoms: _17  and  _18
REMARK    8  A    between atoms: _17  and  _20
REMARK    9  A    between atoms: _20  and  _21
REMARK   10  A    between atoms: _24  and  _26
REMARK   11  A    between atoms: _26  and  _27
REMARK   12  A    between atoms: _26  and  _29
REMARK   13  A    between atoms: _29  and  _30
REMARK   14  A    between atoms: _30  and  _31
REMARK   15  A    between atoms: _31  and  _32
REMARK   16  A    between atoms: _32  and  _33
REMARK   17  A    between atoms: _37  and  _39
REMARK   18  A    between atoms: _39  and  _40
REMARK   19  A    between atoms: _39  and  _42
REMARK   20  A    between atoms: _42  and  _43
REMARK   21  A    between atoms: _43  and  _44
REMARK   22  A    between atoms: _44  and  _45
REMARK   23  A    between atoms: _45  and  _46
REMARK   24  A    between atoms: _50  and  _52
REMARK   25  A    between atoms: _52  and  _53
REMARK   26  A    between atoms: _52  and  _55
REMARK   27  A    between atoms: _55  and  _56
REMARK   28  A    between atoms: _61  and  _63
REMARK   29  A    between atoms: _63  and  _64
REMARK   30  A    between atoms: _63  and  _66
REMARK   31  A    between atoms: _66  and  _67
REMARK   32  A    between atoms: _70  and  _72
REMARK   33  A    between atoms: _72  and  _73
REMARK   34  A    between atoms: _72  and  _75
REMARK   35  A    between atoms: _75  and  _76
REMARK   36  A    between atoms: _79  and  _81
REMARK   37  A    between atoms: _81  and  _82
REMARK   38  A    between atoms: _81  and  _84
REMARK   39  A    between atoms: _86  and  _88
REMARK   40  A    between atoms: _88  and  _89
REMARK   41  A    between atoms: _88  and  _91
REMARK   42  A    between atoms: _93  and  _95
REMARK   43  A    between atoms: _95  and  _96
REMARK   44  A    between atoms: _95  and  _98
REMARK   45  A    between atoms: _98  and  _99
REMARK   46  A    between atoms: _102  and  _104
REMARK   47  A    between atoms: _104  and  _105
REMARK   48  A    between atoms: _104  and  _107
REMARK   49  A    between atoms: _107  and  _108
REMARK   50  A    between atoms: _114  and  _116
REMARK   51  A    between atoms: _116  and  _117
REMARK   52  A    between atoms: _116  and  _119
REMARK   53  A    between atoms: _119  and  _120
REMARK   54  A    between atoms: _123  and  _125
REMARK   55  A    between atoms: _125  and  _126
REMARK   56  A    between atoms: _128  and  _130
REMARK   57  A    between atoms: _130  and  _131
REMARK   58  A    between atoms: _130  and  _133
REMARK   59  A    between atoms: _133  and  _134
REMARK   60  A    between atoms: _144  and  _146
REMARK   61  A    between atoms: _146  and  _147
REMARK   62  A    between atoms: _146  and  _149
REMARK   63  A    between atoms: _149  and  _150
REMARK   64  A    between atoms: _150  and  _151
REMARK   65  A    between atoms: _151  and  _152
REMARK   66  A    between atoms: _161  and  _163
REMARK   67  A    between atoms: _163  and  _164
REMARK   68  A    between atoms: _167  and  _169
REMARK   69  A    between atoms: _169  and  _170
REMARK   70  A    between atoms: _169  and  _172
REMARK   71  A    between atoms: _172  and  _173
REMARK   72  A    between atoms: _179  and  _181
REMARK   73  A    between atoms: _181  and  _182
REMARK   74  A    between atoms: _181  and  _184
REMARK   75  A    between atoms: _184  and  _185
REMARK   76  A    between atoms: _188  and  _190
REMARK   77  A    between atoms: _190  and  _191
REMARK   78  A    between atoms: _190  and  _193
REMARK   79  A    between atoms: _193  and  _194
REMARK   80  A    between atoms: _194  and  _195
REMARK   81  A    between atoms: _201  and  _202
REMARK   82  A    between atoms: _208  and  _209
REMARK   83  A    between atoms: _214  and  _216
REMARK   84  A    between atoms: _216  and  _217
REMARK                            x       y       z     vdW  Elec       q    Type
REMARK                         _______ _______ _______ _____ _____    ______ ____
ROOT
ATOM      1  O   HOH     1     -18.321 -12.078 -15.063  0.00  0.00    +0.000 OA
ENDROOT
TORSDOF 0
REMARK  Name = ../refined-set-2016/2r58/2r58_pocket.pdb
REMARK  84 active torsions:
REMARK  status: ('A' for Active; 'I' for Inactive)
REMARK    1  A    between atoms: _1  and  _3
REMARK    2  A    between atoms: _3  and  _4
REMARK    3  A    between atoms: _7  and  _9
REMARK    4  A    between atoms: _9  and  _10
REMARK    5  A    between atoms: _9  and  _12
REMARK    6  A    between atoms: _15  and  _17
REMARK    7  A    between atoms: _17  and  _18
REMARK    8  A    between atoms: _17  and  _20
REMARK    9  A    between atoms: _20  and  _21
REMARK   10  A    between atoms: _24  and  _26
REMARK   11  A    between atoms: _26  and  _27
REMARK   12  A    between atoms: _26  and  _29
REMARK   13  A    between atoms: _29  and  _30
REMARK   14  A    between atoms: _30  and  _31
REMARK   15  A    between atoms: _31  and  _32
REMARK   16  A    between atoms: _32  and  _33
REMARK   17  A    between atoms: _37  and  _39
REMARK   18  A    between atoms: _39  and  _40
REMARK   19  A    between atoms: _39  and  _42
REMARK   20  A    between atoms: _42  and  _43
REMARK   21  A    between atoms: _43  and  _44
REMARK   22  A    between atoms: _44  and  _45
REMARK   23  A    between atoms: _45  and  _46
REMARK   24  A    between atoms: _50  and  _52
REMARK   25  A    between atoms: _52  and  _53
REMARK   26  A    between atoms: _52  and  _55
REMARK   27  A    between atoms: _55  and  _56
REMARK   28  A    between atoms: _61  and  _63
REMARK   29  A    between atoms: _63  and  _64
REMARK   30  A    between atoms: _63  and  _66
REMARK   31  A    between atoms: _66  and  _67
REMARK   32  A    between atoms: _70  and  _72
REMARK   33  A    between atoms: _72  and  _73
REMARK   34  A    between atoms: _72  and  _75
REMARK   35  A    between atoms: _75  and  _76
REMARK   36  A    between atoms: _79  and  _81
REMARK   37  A    between atoms: _81  and  _82
REMARK   38  A    between atoms: _81  and  _84
REMARK   39  A    between atoms: _86  and  _88
REMARK   40  A    between atoms: _88  and  _89
REMARK   41  A    between atoms: _88  and  _91
REMARK   42  A    between atoms: _93  and  _95
REMARK   43  A    between atoms: _95  and  _96
REMARK   44  A    between atoms: _95  and  _98
REMARK   45  A    between atoms: _98  and  _99
REMARK   46  A    between atoms: _102  and  _104
REMARK   47  A    between atoms: _104  and  _105
REMARK   48  A    between atoms: _104  and  _107
REMARK   49  A    between atoms: _107  and  _108
REMARK   50  A    between atoms: _114  and  _116
REMARK   51  A    between atoms: _116  and  _117
REMARK   52  A    between atoms: _116  and  _119
REMARK   53  A    between atoms: _119  and  _120
REMARK   54  A    between atoms: _123  and  _125
REMARK   55  A    between atoms: _125  and  _126
REMARK   56  A    between atoms: _128  and  _130
REMARK   57  A    between atoms: _130  and  _131
REMARK   58  A    between atoms: _130  and  _133
REMARK   59  A    between atoms: _133  and  _134
REMARK   60  A    between atoms: _144  and  _146
REMARK   61  A    between atoms: _146  and  _147
REMARK   62  A    between atoms: _146  and  _149
REMARK   63  A    between atoms: _149  and  _150
REMARK   64  A    between atoms: _150  and  _151
REMARK   65  A    between atoms: _151  and  _152
REMARK   66  A    between atoms: _161  and  _163
REMARK   67  A    between atoms: _163  and  _164
REMARK   68  A    between atoms: _167  and  _169
REMARK   69  A    between atoms: _169  and  _170
REMARK   70  A    between atoms: _169  and  _172
REMARK   71  A    between atoms: _172  and  _173
REMARK   72  A    between atoms: _179  and  _181
REMARK   73  A    between atoms: _181  and  _182
REMARK   74  A    between atoms: _181  and  _184
REMARK   75  A    between atoms: _184  and  _185
REMARK   76  A    between atoms: _188  and  _190
REMARK   77  A    between atoms: _190  and  _191
REMARK   78  A    between atoms: _190  and  _193
REMARK   79  A    between atoms: _193  and  _194
REMARK   80  A    between atoms: _194  and  _195
REMARK   81  A    between atoms: _201  and  _202
REMARK   82  A    between atoms: _208  and  _209
REMARK   83  A    between atoms: _214  and  _216
REMARK   84  A    between atoms: _216  and  _217
REMARK                            x       y       z     vdW  Elec       q    Type
REMARK                         _______ _______ _______ _____ _____    ______ ____
ROOT
ATOM      1  O   HOH     1     -26.615 -12.804 -23.837  0.00  0.00    +0.000 OA
ENDROOT
TORSDOF 0
REMARK  Name = ../refined-set-2016/2r58/2r58_pocket.pdb
REMARK  84 active torsions:
REMARK  status: ('A' for Active; 'I' for Inactive)
REMARK    1  A    between atoms: _1  and  _3
REMARK    2  A    between atoms: _3  and  _4
REMARK    3  A    between atoms: _7  and  _9
REMARK    4  A    between atoms: _9  and  _10
REMARK    5  A    between atoms: _9  and  _12
REMARK    6  A    between atoms: _15  and  _17
REMARK    7  A    between atoms: _17  and  _18
REMARK    8  A    between atoms: _17  and  _20
REMARK    9  A    between atoms: _20  and  _21
REMARK   10  A    between atoms: _24  and  _26
REMARK   11  A    between atoms: _26  and  _27
REMARK   12  A    between atoms: _26  and  _29
REMARK   13  A    between atoms: _29  and  _30
REMARK   14  A    between atoms: _30  and  _31
REMARK   15  A    between atoms: _31  and  _32
REMARK   16  A    between atoms: _32  and  _33
REMARK   17  A    between atoms: _37  and  _39
REMARK   18  A    between atoms: _39  and  _40
REMARK   19  A    between atoms: _39  and  _42
REMARK   20  A    between atoms: _42  and  _43
REMARK   21  A    between atoms: _43  and  _44
REMARK   22  A    between atoms: _44  and  _45
REMARK   23  A    between atoms: _45  and  _46
REMARK   24  A    between atoms: _50  and  _52
REMARK   25  A    between atoms: _52  and  _53
REMARK   26  A    between atoms: _52  and  _55
REMARK   27  A    between atoms: _55  and  _56
REMARK   28  A    between atoms: _61  and  _63
REMARK   29  A    between atoms: _63  and  _64
REMARK   30  A    between atoms: _63  and  _66
REMARK   31  A    between atoms: _66  and  _67
REMARK   32  A    between atoms: _70  and  _72
REMARK   33  A    between atoms: _72  and  _73
REMARK   34  A    between atoms: _72  and  _75
REMARK   35  A    between atoms: _75  and  _76
REMARK   36  A    between atoms: _79  and  _81
REMARK   37  A    between atoms: _81  and  _82
REMARK   38  A    between atoms: _81  and  _84
REMARK   39  A    between atoms: _86  and  _88
REMARK   40  A    between atoms: _88  and  _89
REMARK   41  A    between atoms: _88  and  _91
REMARK   42  A    between atoms: _93  and  _95
REMARK   43  A    between atoms: _95  and  _96
REMARK   44  A    between atoms: _95  and  _98
REMARK   45  A    between atoms: _98  and  _99
REMARK   46  A    between atoms: _102  and  _104
REMARK   47  A    between atoms: _104  and  _105
REMARK   48  A    between atoms: _104  and  _107
REMARK   49  A    between atoms: _107  and  _108
REMARK   50  A    between atoms: _114  and  _116
REMARK   51  A    between atoms: _116  and  _117
REMARK   52  A    between atoms: _116  and  _119
REMARK   53  A    between atoms: _119  and  _120
REMARK   54  A    between atoms: _123  and  _125
REMARK   55  A    between atoms: _125  and  _126
REMARK   56  A    between atoms: _128  and  _130
REMARK   57  A    between atoms: _130  and  _131
REMARK   58  A    between atoms: _130  and  _133
REMARK   59  A    between atoms: _133  and  _134
REMARK   60  A    between atoms: _144  and  _146
REMARK   61  A    between atoms: _146  and  _147
REMARK   62  A    between atoms: _146  and  _149
REMARK   63  A    between atoms: _149  and  _150
REMARK   64  A    between atoms: _150  and  _151
REMARK   65  A    between atoms: _151  and  _152
REMARK   66  A    between atoms: _161  and  _163
REMARK   67  A    between atoms: _163  and  _164
REMARK   68  A    between atoms: _167  and  _169
REMARK   69  A    between atoms: _169  and  _170
REMARK   70  A    between atoms: _169  and  _172
REMARK   71  A    between atoms: _172  and  _173
REMARK   72  A    between atoms: _179  and  _181
REMARK   73  A    between atoms: _181  and  _182
REMARK   74  A    between atoms: _181  and  _184
REMARK   75  A    between atoms: _184  and  _185
REMARK   76  A    between atoms: _188  and  _190
REMARK   77  A    between atoms: _190  and  _191
REMARK   78  A    between atoms: _190  and  _193
REMARK   79  A    between atoms: _193  and  _194
REMARK   80  A    between atoms: _194  and  _195
REMARK   81  A    between atoms: _201  and  _202
REMARK   82  A    between atoms: _208  and  _209
REMARK   83  A    between atoms: _214  and  _216
REMARK   84  A    between atoms: _216  and  _217
REMARK                            x       y       z     vdW  Elec       q    Type
REMARK                         _______ _______ _______ _____ _____    ______ ____
ROOT
ATOM      1  O   HOH     1     -18.582 -17.480 -20.996  0.00  0.00    +0.000 OA
ENDROOT
TORSDOF 0
REMARK  Name = ../refined-set-2016/2r58/2r58_pocket.pdb
REMARK  84 active torsions:
REMARK  status: ('A' for Active; 'I' for Inactive)
REMARK    1  A    between atoms: _1  and  _3
REMARK    2  A    between atoms: _3  and  _4
REMARK    3  A    between atoms: _7  and  _9
REMARK    4  A    between atoms: _9  and  _10
REMARK    5  A    between atoms: _9  and  _12
REMARK    6  A    between atoms: _15  and  _17
REMARK    7  A    between atoms: _17  and  _18
REMARK    8  A    between atoms: _17  and  _20
REMARK    9  A    between atoms: _20  and  _21
REMARK   10  A    between atoms: _24  and  _26
REMARK   11  A    between atoms: _26  and  _27
REMARK   12  A    between atoms: _26  and  _29
REMARK   13  A    between atoms: _29  and  _30
REMARK   14  A    between atoms: _30  and  _31
REMARK   15  A    between atoms: _31  and  _32
REMARK   16  A    between atoms: _32  and  _33
REMARK   17  A    between atoms: _37  and  _39
REMARK   18  A    between atoms: _39  and  _40
REMARK   19  A    between atoms: _39  and  _42
REMARK   20  A    between atoms: _42  and  _43
REMARK   21  A    between atoms: _43  and  _44
REMARK   22  A    between atoms: _44  and  _45
REMARK   23  A    between atoms: _45  and  _46
REMARK   24  A    between atoms: _50  and  _52
REMARK   25  A    between atoms: _52  and  _53
REMARK   26  A    between atoms: _52  and  _55
REMARK   27  A    between atoms: _55  and  _56
REMARK   28  A    between atoms: _61  and  _63
REMARK   29  A    between atoms: _63  and  _64
REMARK   30  A    between atoms: _63  and  _66
REMARK   31  A    between atoms: _66  and  _67
REMARK   32  A    between atoms: _70  and  _72
REMARK   33  A    between atoms: _72  and  _73
REMARK   34  A    between atoms: _72  and  _75
REMARK   35  A    between atoms: _75  and  _76
REMARK   36  A    between atoms: _79  and  _81
REMARK   37  A    between atoms: _81  and  _82
REMARK   38  A    between atoms: _81  and  _84
REMARK   39  A    between atoms: _86  and  _88
REMARK   40  A    between atoms: _88  and  _89
REMARK   41  A    between atoms: _88  and  _91
REMARK   42  A    between atoms: _93  and  _95
REMARK   43  A    between atoms: _95  and  _96
REMARK   44  A    between atoms: _95  and  _98
REMARK   45  A    between atoms: _98  and  _99
REMARK   46  A    between atoms: _102  and  _104
REMARK   47  A    between atoms: _104  and  _105
REMARK   48  A    between atoms: _104  and  _107
REMARK   49  A    between atoms: _107  and  _108
REMARK   50  A    between atoms: _114  and  _116
REMARK   51  A    between atoms: _116  and  _117
REMARK   52  A    between atoms: _116  and  _119
REMARK   53  A    between atoms: _119  and  _120
REMARK   54  A    between atoms: _123  and  _125
REMARK   55  A    between atoms: _125  and  _126
REMARK   56  A    between atoms: _128  and  _130
REMARK   57  A    between atoms: _130  and  _131
REMARK   58  A    between atoms: _130  and  _133
REMARK   59  A    between atoms: _133  and  _134
REMARK   60  A    between atoms: _144  and  _146
REMARK   61  A    between atoms: _146  and  _147
REMARK   62  A    between atoms: _146  and  _149
REMARK   63  A    between atoms: _149  and  _150
REMARK   64  A    between atoms: _150  and  _151
REMARK   65  A    between atoms: _151  and  _152
REMARK   66  A    between atoms: _161  and  _163
REMARK   67  A    between atoms: _163  and  _164
REMARK   68  A    between atoms: _167  and  _169
REMARK   69  A    between atoms: _169  and  _170
REMARK   70  A    between atoms: _169  and  _172
REMARK   71  A    between atoms: _172  and  _173
REMARK   72  A    between atoms: _179  and  _181
REMARK   73  A    between atoms: _181  and  _182
REMARK   74  A    between atoms: _181  and  _184
REMARK   75  A    between atoms: _184  and  _185
REMARK   76  A    between atoms: _188  and  _190
REMARK   77  A    between atoms: _190  and  _191
REMARK   78  A    between atoms: _190  and  _193
REMARK   79  A    between atoms: _193  and  _194
REMARK   80  A    between atoms: _194  and  _195
REMARK   81  A    between atoms: _201  and  _202
REMARK   82  A    between atoms: _208  and  _209
REMARK   83  A    between atoms: _214  and  _216
REMARK   84  A    between atoms: _216  and  _217
REMARK                            x       y       z     vdW  Elec       q    Type
REMARK                         _______ _______ _______ _____ _____    ______ ____
ROOT
ATOM      1  O   HOH     1     -17.824 -20.212 -18.493  0.00  0.00    +0.000 OA
ENDROOT
TORSDOF 0
REMARK  Name = ../refined-set-2016/2r58/2r58_pocket.pdb
REMARK  84 active torsions:
REMARK  status: ('A' for Active; 'I' for Inactive)
REMARK    1  A    between atoms: _1  and  _3
REMARK    2  A    between atoms: _3  and  _4
REMARK    3  A    between atoms: _7  and  _9
REMARK    4  A    between atoms: _9  and  _10
REMARK    5  A    between atoms: _9  and  _12
REMARK    6  A    between atoms: _15  and  _17
REMARK    7  A    between atoms: _17  and  _18
REMARK    8  A    between atoms: _17  and  _20
REMARK    9  A    between atoms: _20  and  _21
REMARK   10  A    between atoms: _24  and  _26
REMARK   11  A    between atoms: _26  and  _27
REMARK   12  A    between atoms: _26  and  _29
REMARK   13  A    between atoms: _29  and  _30
REMARK   14  A    between atoms: _30  and  _31
REMARK   15  A    between atoms: _31  and  _32
REMARK   16  A    between atoms: _32  and  _33
REMARK   17  A    between atoms: _37  and  _39
REMARK   18  A    between atoms: _39  and  _40
REMARK   19  A    between atoms: _39  and  _42
REMARK   20  A    between atoms: _42  and  _43
REMARK   21  A    between atoms: _43  and  _44
REMARK   22  A    between atoms: _44  and  _45
REMARK   23  A    between atoms: _45  and  _46
REMARK   24  A    between atoms: _50  and  _52
REMARK   25  A    between atoms: _52  and  _53
REMARK   26  A    between atoms: _52  and  _55
REMARK   27  A    between atoms: _55  and  _56
REMARK   28  A    between atoms: _61  and  _63
REMARK   29  A    between atoms: _63  and  _64
REMARK   30  A    between atoms: _63  and  _66
REMARK   31  A    between atoms: _66  and  _67
REMARK   32  A    between atoms: _70  and  _72
REMARK   33  A    between atoms: _72  and  _73
REMARK   34  A    between atoms: _72  and  _75
REMARK   35  A    between atoms: _75  and  _76
REMARK   36  A    between atoms: _79  and  _81
REMARK   37  A    between atoms: _81  and  _82
REMARK   38  A    between atoms: _81  and  _84
REMARK   39  A    between atoms: _86  and  _88
REMARK   40  A    between atoms: _88  and  _89
REMARK   41  A    between atoms: _88  and  _91
REMARK   42  A    between atoms: _93  and  _95
REMARK   43  A    between atoms: _95  and  _96
REMARK   44  A    between atoms: _95  and  _98
REMARK   45  A    between atoms: _98  and  _99
REMARK   46  A    between atoms: _102  and  _104
REMARK   47  A    between atoms: _104  and  _105
REMARK   48  A    between atoms: _104  and  _107
REMARK   49  A    between atoms: _107  and  _108
REMARK   50  A    between atoms: _114  and  _116
REMARK   51  A    between atoms: _116  and  _117
REMARK   52  A    between atoms: _116  and  _119
REMARK   53  A    between atoms: _119  and  _120
REMARK   54  A    between atoms: _123  and  _125
REMARK   55  A    between atoms: _125  and  _126
REMARK   56  A    between atoms: _128  and  _130
REMARK   57  A    between atoms: _130  and  _131
REMARK   58  A    between atoms: _130  and  _133
REMARK   59  A    between atoms: _133  and  _134
REMARK   60  A    between atoms: _144  and  _146
REMARK   61  A    between atoms: _146  and  _147
REMARK   62  A    between atoms: _146  and  _149
REMARK   63  A    between atoms: _149  and  _150
REMARK   64  A    between atoms: _150  and  _151
REMARK   65  A    between atoms: _151  and  _152
REMARK   66  A    between atoms: _161  and  _163
REMARK   67  A    between atoms: _163  and  _164
REMARK   68  A    between atoms: _167  and  _169
REMARK   69  A    between atoms: _169  and  _170
REMARK   70  A    between atoms: _169  and  _172
REMARK   71  A    between atoms: _172  and  _173
REMARK   72  A    between atoms: _179  and  _181
REMARK   73  A    between atoms: _181  and  _182
REMARK   74  A    between atoms: _181  and  _184
REMARK   75  A    between atoms: _184  and  _185
REMARK   76  A    between atoms: _188  and  _190
REMARK   77  A    between atoms: _190  and  _191
REMARK   78  A    between atoms: _190  and  _193
REMARK   79  A    between atoms: _193  and  _194
REMARK   80  A    between atoms: _194  and  _195
REMARK   81  A    between atoms: _201  and  _202
REMARK   82  A    between atoms: _208  and  _209
REMARK   83  A    between atoms: _214  and  _216
REMARK   84  A    between atoms: _216  and  _217
REMARK                            x       y       z     vdW  Elec       q    Type
REMARK                         _______ _______ _______ _____ _____    ______ ____
ROOT
ATOM      1  O   HOH     1     -29.461 -18.275 -19.129  0.00  0.00    +0.000 OA
ENDROOT
TORSDOF 0
REMARK  Name = ../refined-set-2016/2r58/2r58_pocket.pdb
REMARK  84 active torsions:
REMARK  status: ('A' for Active; 'I' for Inactive)
REMARK    1  A    between atoms: _1  and  _3
REMARK    2  A    between atoms: _3  and  _4
REMARK    3  A    between atoms: _7  and  _9
REMARK    4  A    between atoms: _9  and  _10
REMARK    5  A    between atoms: _9  and  _12
REMARK    6  A    between atoms: _15  and  _17
REMARK    7  A    between atoms: _17  and  _18
REMARK    8  A    between atoms: _17  and  _20
REMARK    9  A    between atoms: _20  and  _21
REMARK   10  A    between atoms: _24  and  _26
REMARK   11  A    between atoms: _26  and  _27
REMARK   12  A    between atoms: _26  and  _29
REMARK   13  A    between atoms: _29  and  _30
REMARK   14  A    between atoms: _30  and  _31
REMARK   15  A    between atoms: _31  and  _32
REMARK   16  A    between atoms: _32  and  _33
REMARK   17  A    between atoms: _37  and  _39
REMARK   18  A    between atoms: _39  and  _40
REMARK   19  A    between atoms: _39  and  _42
REMARK   20  A    between atoms: _42  and  _43
REMARK   21  A    between atoms: _43  and  _44
REMARK   22  A    between atoms: _44  and  _45
REMARK   23  A    between atoms: _45  and  _46
REMARK   24  A    between atoms: _50  and  _52
REMARK   25  A    between atoms: _52  and  _53
REMARK   26  A    between atoms: _52  and  _55
REMARK   27  A    between atoms: _55  and  _56
REMARK   28  A    between atoms: _61  and  _63
REMARK   29  A    between atoms: _63  and  _64
REMARK   30  A    between atoms: _63  and  _66
REMARK   31  A    between atoms: _66  and  _67
REMARK   32  A    between atoms: _70  and  _72
REMARK   33  A    between atoms: _72  and  _73
REMARK   34  A    between atoms: _72  and  _75
REMARK   35  A    between atoms: _75  and  _76
REMARK   36  A    between atoms: _79  and  _81
REMARK   37  A    between atoms: _81  and  _82
REMARK   38  A    between atoms: _81  and  _84
REMARK   39  A    between atoms: _86  and  _88
REMARK   40  A    between atoms: _88  and  _89
REMARK   41  A    between atoms: _88  and  _91
REMARK   42  A    between atoms: _93  and  _95
REMARK   43  A    between atoms: _95  and  _96
REMARK   44  A    between atoms: _95  and  _98
REMARK   45  A    between atoms: _98  and  _99
REMARK   46  A    between atoms: _102  and  _104
REMARK   47  A    between atoms: _104  and  _105
REMARK   48  A    between atoms: _104  and  _107
REMARK   49  A    between atoms: _107  and  _108
REMARK   50  A    between atoms: _114  and  _116
REMARK   51  A    between atoms: _116  and  _117
REMARK   52  A    between atoms: _116  and  _119
REMARK   53  A    between atoms: _119  and  _120
REMARK   54  A    between atoms: _123  and  _125
REMARK   55  A    between atoms: _125  and  _126
REMARK   56  A    between atoms: _128  and  _130
REMARK   57  A    between atoms: _130  and  _131
REMARK   58  A    between atoms: _130  and  _133
REMARK   59  A    between atoms: _133  and  _134
REMARK   60  A    between atoms: _144  and  _146
REMARK   61  A    between atoms: _146  and  _147
REMARK   62  A    between atoms: _146  and  _149
REMARK   63  A    between atoms: _149  and  _150
REMARK   64  A    between atoms: _150  and  _151
REMARK   65  A    between atoms: _151  and  _152
REMARK   66  A    between atoms: _161  and  _163
REMARK   67  A    between atoms: _163  and  _164
REMARK   68  A    between atoms: _167  and  _169
REMARK   69  A    between atoms: _169  and  _170
REMARK   70  A    between atoms: _169  and  _172
REMARK   71  A    between atoms: _172  and  _173
REMARK   72  A    between atoms: _179  and  _181
REMARK   73  A    between atoms: _181  and  _182
REMARK   74  A    between atoms: _181  and  _184
REMARK   75  A    between atoms: _184  and  _185
REMARK   76  A    between atoms: _188  and  _190
REMARK   77  A    between atoms: _190  and  _191
REMARK   78  A    between atoms: _190  and  _193
REMARK   79  A    between atoms: _193  and  _194
REMARK   80  A    between atoms: _194  and  _195
REMARK   81  A    between atoms: _201  and  _202
REMARK   82  A    between atoms: _208  and  _209
REMARK   83  A    between atoms: _214  and  _216
REMARK   84  A    between atoms: _216  and  _217
REMARK                            x       y       z     vdW  Elec       q    Type
REMARK                         _______ _______ _______ _____ _____    ______ ____
ROOT
ATOM      1  O   HOH     1     -25.167 -14.711 -12.521  0.00  0.00    +0.000 OA
ENDROOT
TORSDOF 0
REMARK  Name = ../refined-set-2016/2r58/2r58_pocket.pdb
REMARK  84 active torsions:
REMARK  status: ('A' for Active; 'I' for Inactive)
REMARK    1  A    between atoms: _1  and  _3
REMARK    2  A    between atoms: _3  and  _4
REMARK    3  A    between atoms: _7  and  _9
REMARK    4  A    between atoms: _9  and  _10
REMARK    5  A    between atoms: _9  and  _12
REMARK    6  A    between atoms: _15  and  _17
REMARK    7  A    between atoms: _17  and  _18
REMARK    8  A    between atoms: _17  and  _20
REMARK    9  A    between atoms: _20  and  _21
REMARK   10  A    between atoms: _24  and  _26
REMARK   11  A    between atoms: _26  and  _27
REMARK   12  A    between atoms: _26  and  _29
REMARK   13  A    between atoms: _29  and  _30
REMARK   14  A    between atoms: _30  and  _31
REMARK   15  A    between atoms: _31  and  _32
REMARK   16  A    between atoms: _32  and  _33
REMARK   17  A    between atoms: _37  and  _39
REMARK   18  A    between atoms: _39  and  _40
REMARK   19  A    between atoms: _39  and  _42
REMARK   20  A    between atoms: _42  and  _43
REMARK   21  A    between atoms: _43  and  _44
REMARK   22  A    between atoms: _44  and  _45
REMARK   23  A    between atoms: _45  and  _46
REMARK   24  A    between atoms: _50  and  _52
REMARK   25  A    between atoms: _52  and  _53
REMARK   26  A    between atoms: _52  and  _55
REMARK   27  A    between atoms: _55  and  _56
REMARK   28  A    between atoms: _61  and  _63
REMARK   29  A    between atoms: _63  and  _64
REMARK   30  A    between atoms: _63  and  _66
REMARK   31  A    between atoms: _66  and  _67
REMARK   32  A    between atoms: _70  and  _72
REMARK   33  A    between atoms: _72  and  _73
REMARK   34  A    between atoms: _72  and  _75
REMARK   35  A    between atoms: _75  and  _76
REMARK   36  A    between atoms: _79  and  _81
REMARK   37  A    between atoms: _81  and  _82
REMARK   38  A    between atoms: _81  and  _84
REMARK   39  A    between atoms: _86  and  _88
REMARK   40  A    between atoms: _88  and  _89
REMARK   41  A    between atoms: _88  and  _91
REMARK   42  A    between atoms: _93  and  _95
REMARK   43  A    between atoms: _95  and  _96
REMARK   44  A    between atoms: _95  and  _98
REMARK   45  A    between atoms: _98  and  _99
REMARK   46  A    between atoms: _102  and  _104
REMARK   47  A    between atoms: _104  and  _105
REMARK   48  A    between atoms: _104  and  _107
REMARK   49  A    between atoms: _107  and  _108
REMARK   50  A    between atoms: _114  and  _116
REMARK   51  A    between atoms: _116  and  _117
REMARK   52  A    between atoms: _116  and  _119
REMARK   53  A    between atoms: _119  and  _120
REMARK   54  A    between atoms: _123  and  _125
REMARK   55  A    between atoms: _125  and  _126
REMARK   56  A    between atoms: _128  and  _130
REMARK   57  A    between atoms: _130  and  _131
REMARK   58  A    between atoms: _130  and  _133
REMARK   59  A    between atoms: _133  and  _134
REMARK   60  A    between atoms: _144  and  _146
REMARK   61  A    between atoms: _146  and  _147
REMARK   62  A    between atoms: _146  and  _149
REMARK   63  A    between atoms: _149  and  _150
REMARK   64  A    between atoms: _150  and  _151
REMARK   65  A    between atoms: _151  and  _152
REMARK   66  A    between atoms: _161  and  _163
REMARK   67  A    between atoms: _163  and  _164
REMARK   68  A    between atoms: _167  and  _169
REMARK   69  A    between atoms: _169  and  _170
REMARK   70  A    between atoms: _169  and  _172
REMARK   71  A    between atoms: _172  and  _173
REMARK   72  A    between atoms: _179  and  _181
REMARK   73  A    between atoms: _181  and  _182
REMARK   74  A    between atoms: _181  and  _184
REMARK   75  A    between atoms: _184  and  _185
REMARK   76  A    between atoms: _188  and  _190
REMARK   77  A    between atoms: _190  and  _191
REMARK   78  A    between atoms: _190  and  _193
REMARK   79  A    between atoms: _193  and  _194
REMARK   80  A    between atoms: _194  and  _195
REMARK   81  A    between atoms: _201  and  _202
REMARK   82  A    between atoms: _208  and  _209
REMARK   83  A    between atoms: _214  and  _216
REMARK   84  A    between atoms: _216  and  _217
REMARK                            x       y       z     vdW  Elec       q    Type
REMARK                         _______ _______ _______ _____ _____    ______ ____
ROOT
ATOM      1  O   HOH     1     -31.177 -22.033 -25.053  0.00  0.00    +0.000 OA
ENDROOT
TORSDOF 0
REMARK  Name = ../refined-set-2016/2r58/2r58_pocket.pdb
REMARK  84 active torsions:
REMARK  status: ('A' for Active; 'I' for Inactive)
REMARK    1  A    between atoms: _1  and  _3
REMARK    2  A    between atoms: _3  and  _4
REMARK    3  A    between atoms: _7  and  _9
REMARK    4  A    between atoms: _9  and  _10
REMARK    5  A    between atoms: _9  and  _12
REMARK    6  A    between atoms: _15  and  _17
REMARK    7  A    between atoms: _17  and  _18
REMARK    8  A    between atoms: _17  and  _20
REMARK    9  A    between atoms: _20  and  _21
REMARK   10  A    between atoms: _24  and  _26
REMARK   11  A    between atoms: _26  and  _27
REMARK   12  A    between atoms: _26  and  _29
REMARK   13  A    between atoms: _29  and  _30
REMARK   14  A    between atoms: _30  and  _31
REMARK   15  A    between atoms: _31  and  _32
REMARK   16  A    between atoms: _32  and  _33
REMARK   17  A    between atoms: _37  and  _39
REMARK   18  A    between atoms: _39  and  _40
REMARK   19  A    between atoms: _39  and  _42
REMARK   20  A    between atoms: _42  and  _43
REMARK   21  A    between atoms: _43  and  _44
REMARK   22  A    between atoms: _44  and  _45
REMARK   23  A    between atoms: _45  and  _46
REMARK   24  A    between atoms: _50  and  _52
REMARK   25  A    between atoms: _52  and  _53
REMARK   26  A    between atoms: _52  and  _55
REMARK   27  A    between atoms: _55  and  _56
REMARK   28  A    between atoms: _61  and  _63
REMARK   29  A    between atoms: _63  and  _64
REMARK   30  A    between atoms: _63  and  _66
REMARK   31  A    between atoms: _66  and  _67
REMARK   32  A    between atoms: _70  and  _72
REMARK   33  A    between atoms: _72  and  _73
REMARK   34  A    between atoms: _72  and  _75
REMARK   35  A    between atoms: _75  and  _76
REMARK   36  A    between atoms: _79  and  _81
REMARK   37  A    between atoms: _81  and  _82
REMARK   38  A    between atoms: _81  and  _84
REMARK   39  A    between atoms: _86  and  _88
REMARK   40  A    between atoms: _88  and  _89
REMARK   41  A    between atoms: _88  and  _91
REMARK   42  A    between atoms: _93  and  _95
REMARK   43  A    between atoms: _95  and  _96
REMARK   44  A    between atoms: _95  and  _98
REMARK   45  A    between atoms: _98  and  _99
REMARK   46  A    between atoms: _102  and  _104
REMARK   47  A    between atoms: _104  and  _105
REMARK   48  A    between atoms: _104  and  _107
REMARK   49  A    between atoms: _107  and  _108
REMARK   50  A    between atoms: _114  and  _116
REMARK   51  A    between atoms: _116  and  _117
REMARK   52  A    between atoms: _116  and  _119
REMARK   53  A    between atoms: _119  and  _120
REMARK   54  A    between atoms: _123  and  _125
REMARK   55  A    between atoms: _125  and  _126
REMARK   56  A    between atoms: _128  and  _130
REMARK   57  A    between atoms: _130  and  _131
REMARK   58  A    between atoms: _130  and  _133
REMARK   59  A    between atoms: _133  and  _134
REMARK   60  A    between atoms: _144  and  _146
REMARK   61  A    between atoms: _146  and  _147
REMARK   62  A    between atoms: _146  and  _149
REMARK   63  A    between atoms: _149  and  _150
REMARK   64  A    between atoms: _150  and  _151
REMARK   65  A    between atoms: _151  and  _152
REMARK   66  A    between atoms: _161  and  _163
REMARK   67  A    between atoms: _163  and  _164
REMARK   68  A    between atoms: _167  and  _169
REMARK   69  A    between atoms: _169  and  _170
REMARK   70  A    between atoms: _169  and  _172
REMARK   71  A    between atoms: _172  and  _173
REMARK   72  A    between atoms: _179  and  _181
REMARK   73  A    between atoms: _181  and  _182
REMARK   74  A    between atoms: _181  and  _184
REMARK   75  A    between atoms: _184  and  _185
REMARK   76  A    between atoms: _188  and  _190
REMARK   77  A    between atoms: _190  and  _191
REMARK   78  A    between atoms: _190  and  _193
REMARK   79  A    between atoms: _193  and  _194
REMARK   80  A    between atoms: _194  and  _195
REMARK   81  A    between atoms: _201  and  _202
REMARK   82  A    between atoms: _208  and  _209
REMARK   83  A    between atoms: _214  and  _216
REMARK   84  A    between atoms: _216  and  _217
REMARK                            x       y       z     vdW  Elec       q    Type
REMARK                         _______ _______ _______ _____ _____    ______ ____
ROOT
ATOM      1  O   HOH     1     -19.359 -18.677 -16.958  0.00  0.00    +0.000 OA
ENDROOT
TORSDOF 0
REMARK  Name = ../refined-set-2016/2r58/2r58_pocket.pdb
REMARK  84 active torsions:
REMARK  status: ('A' for Active; 'I' for Inactive)
REMARK    1  A    between atoms: _1  and  _3
REMARK    2  A    between atoms: _3  and  _4
REMARK    3  A    between atoms: _7  and  _9
REMARK    4  A    between atoms: _9  and  _10
REMARK    5  A    between atoms: _9  and  _12
REMARK    6  A    between atoms: _15  and  _17
REMARK    7  A    between atoms: _17  and  _18
REMARK    8  A    between atoms: _17  and  _20
REMARK    9  A    between atoms: _20  and  _21
REMARK   10  A    between atoms: _24  and  _26
REMARK   11  A    between atoms: _26  and  _27
REMARK   12  A    between atoms: _26  and  _29
REMARK   13  A    between atoms: _29  and  _30
REMARK   14  A    between atoms: _30  and  _31
REMARK   15  A    between atoms: _31  and  _32
REMARK   16  A    between atoms: _32  and  _33
REMARK   17  A    between atoms: _37  and  _39
REMARK   18  A    between atoms: _39  and  _40
REMARK   19  A    between atoms: _39  and  _42
REMARK   20  A    between atoms: _42  and  _43
REMARK   21  A    between atoms: _43  and  _44
REMARK   22  A    between atoms: _44  and  _45
REMARK   23  A    between atoms: _45  and  _46
REMARK   24  A    between atoms: _50  and  _52
REMARK   25  A    between atoms: _52  and  _53
REMARK   26  A    between atoms: _52  and  _55
REMARK   27  A    between atoms: _55  and  _56
REMARK   28  A    between atoms: _61  and  _63
REMARK   29  A    between atoms: _63  and  _64
REMARK   30  A    between atoms: _63  and  _66
REMARK   31  A    between atoms: _66  and  _67
REMARK   32  A    between atoms: _70  and  _72
REMARK   33  A    between atoms: _72  and  _73
REMARK   34  A    between atoms: _72  and  _75
REMARK   35  A    between atoms: _75  and  _76
REMARK   36  A    between atoms: _79  and  _81
REMARK   37  A    between atoms: _81  and  _82
REMARK   38  A    between atoms: _81  and  _84
REMARK   39  A    between atoms: _86  and  _88
REMARK   40  A    between atoms: _88  and  _89
REMARK   41  A    between atoms: _88  and  _91
REMARK   42  A    between atoms: _93  and  _95
REMARK   43  A    between atoms: _95  and  _96
REMARK   44  A    between atoms: _95  and  _98
REMARK   45  A    between atoms: _98  and  _99
REMARK   46  A    between atoms: _102  and  _104
REMARK   47  A    between atoms: _104  and  _105
REMARK   48  A    between atoms: _104  and  _107
REMARK   49  A    between atoms: _107  and  _108
REMARK   50  A    between atoms: _114  and  _116
REMARK   51  A    between atoms: _116  and  _117
REMARK   52  A    between atoms: _116  and  _119
REMARK   53  A    between atoms: _119  and  _120
REMARK   54  A    between atoms: _123  and  _125
REMARK   55  A    between atoms: _125  and  _126
REMARK   56  A    between atoms: _128  and  _130
REMARK   57  A    between atoms: _130  and  _131
REMARK   58  A    between atoms: _130  and  _133
REMARK   59  A    between atoms: _133  and  _134
REMARK   60  A    between atoms: _144  and  _146
REMARK   61  A    between atoms: _146  and  _147
REMARK   62  A    between atoms: _146  and  _149
REMARK   63  A    between atoms: _149  and  _150
REMARK   64  A    between atoms: _150  and  _151
REMARK   65  A    between atoms: _151  and  _152
REMARK   66  A    between atoms: _161  and  _163
REMARK   67  A    between atoms: _163  and  _164
REMARK   68  A    between atoms: _167  and  _169
REMARK   69  A    between atoms: _169  and  _170
REMARK   70  A    between atoms: _169  and  _172
REMARK   71  A    between atoms: _172  and  _173
REMARK   72  A    between atoms: _179  and  _181
REMARK   73  A    between atoms: _181  and  _182
REMARK   74  A    between atoms: _181  and  _184
REMARK   75  A    between atoms: _184  and  _185
REMARK   76  A    between atoms: _188  and  _190
REMARK   77  A    between atoms: _190  and  _191
REMARK   78  A    between atoms: _190  and  _193
REMARK   79  A    between atoms: _193  and  _194
REMARK   80  A    between atoms: _194  and  _195
REMARK   81  A    between atoms: _201  and  _202
REMARK   82  A    between atoms: _208  and  _209
REMARK   83  A    between atoms: _214  and  _216
REMARK   84  A    between atoms: _216  and  _217
REMARK                            x       y       z     vdW  Elec       q    Type
REMARK                         _______ _______ _______ _____ _____    ______ ____
ROOT
ATOM      1  O   HOH     1     -21.874 -19.502 -16.407  0.00  0.00    +0.000 OA
ENDROOT
TORSDOF 0
REMARK  Name = ../refined-set-2016/2r58/2r58_pocket.pdb
REMARK  84 active torsions:
REMARK  status: ('A' for Active; 'I' for Inactive)
REMARK    1  A    between atoms: _1  and  _3
REMARK    2  A    between atoms: _3  and  _4
REMARK    3  A    between atoms: _7  and  _9
REMARK    4  A    between atoms: _9  and  _10
REMARK    5  A    between atoms: _9  and  _12
REMARK    6  A    between atoms: _15  and  _17
REMARK    7  A    between atoms: _17  and  _18
REMARK    8  A    between atoms: _17  and  _20
REMARK    9  A    between atoms: _20  and  _21
REMARK   10  A    between atoms: _24  and  _26
REMARK   11  A    between atoms: _26  and  _27
REMARK   12  A    between atoms: _26  and  _29
REMARK   13  A    between atoms: _29  and  _30
REMARK   14  A    between atoms: _30  and  _31
REMARK   15  A    between atoms: _31  and  _32
REMARK   16  A    between atoms: _32  and  _33
REMARK   17  A    between atoms: _37  and  _39
REMARK   18  A    between atoms: _39  and  _40
REMARK   19  A    between atoms: _39  and  _42
REMARK   20  A    between atoms: _42  and  _43
REMARK   21  A    between atoms: _43  and  _44
REMARK   22  A    between atoms: _44  and  _45
REMARK   23  A    between atoms: _45  and  _46
REMARK   24  A    between atoms: _50  and  _52
REMARK   25  A    between atoms: _52  and  _53
REMARK   26  A    between atoms: _52  and  _55
REMARK   27  A    between atoms: _55  and  _56
REMARK   28  A    between atoms: _61  and  _63
REMARK   29  A    between atoms: _63  and  _64
REMARK   30  A    between atoms: _63  and  _66
REMARK   31  A    between atoms: _66  and  _67
REMARK   32  A    between atoms: _70  and  _72
REMARK   33  A    between atoms: _72  and  _73
REMARK   34  A    between atoms: _72  and  _75
REMARK   35  A    between atoms: _75  and  _76
REMARK   36  A    between atoms: _79  and  _81
REMARK   37  A    between atoms: _81  and  _82
REMARK   38  A    between atoms: _81  and  _84
REMARK   39  A    between atoms: _86  and  _88
REMARK   40  A    between atoms: _88  and  _89
REMARK   41  A    between atoms: _88  and  _91
REMARK   42  A    between atoms: _93  and  _95
REMARK   43  A    between atoms: _95  and  _96
REMARK   44  A    between atoms: _95  and  _98
REMARK   45  A    between atoms: _98  and  _99
REMARK   46  A    between atoms: _102  and  _104
REMARK   47  A    between atoms: _104  and  _105
REMARK   48  A    between atoms: _104  and  _107
REMARK   49  A    between atoms: _107  and  _108
REMARK   50  A    between atoms: _114  and  _116
REMARK   51  A    between atoms: _116  and  _117
REMARK   52  A    between atoms: _116  and  _119
REMARK   53  A    between atoms: _119  and  _120
REMARK   54  A    between atoms: _123  and  _125
REMARK   55  A    between atoms: _125  and  _126
REMARK   56  A    between atoms: _128  and  _130
REMARK   57  A    between atoms: _130  and  _131
REMARK   58  A    between atoms: _130  and  _133
REMARK   59  A    between atoms: _133  and  _134
REMARK   60  A    between atoms: _144  and  _146
REMARK   61  A    between atoms: _146  and  _147
REMARK   62  A    between atoms: _146  and  _149
REMARK   63  A    between atoms: _149  and  _150
REMARK   64  A    between atoms: _150  and  _151
REMARK   65  A    between atoms: _151  and  _152
REMARK   66  A    between atoms: _161  and  _163
REMARK   67  A    between atoms: _163  and  _164
REMARK   68  A    between atoms: _167  and  _169
REMARK   69  A    between atoms: _169  and  _170
REMARK   70  A    between atoms: _169  and  _172
REMARK   71  A    between atoms: _172  and  _173
REMARK   72  A    between atoms: _179  and  _181
REMARK   73  A    between atoms: _181  and  _182
REMARK   74  A    between atoms: _181  and  _184
REMARK   75  A    between atoms: _184  and  _185
REMARK   76  A    between atoms: _188  and  _190
REMARK   77  A    between atoms: _190  and  _191
REMARK   78  A    between atoms: _190  and  _193
REMARK   79  A    between atoms: _193  and  _194
REMARK   80  A    between atoms: _194  and  _195
REMARK   81  A    between atoms: _201  and  _202
REMARK   82  A    between atoms: _208  and  _209
REMARK   83  A    between atoms: _214  and  _216
REMARK   84  A    between atoms: _216  and  _217
REMARK                            x       y       z     vdW  Elec       q    Type
REMARK                         _______ _______ _______ _____ _____    ______ ____
ROOT
ATOM      1  O   HOH     1     -24.342 -24.287 -24.575  0.00  0.00    +0.000 OA
ENDROOT
TORSDOF 0
