REMARK  Name = ../refined-set-2016/1mai/1mai_pocket.pdb
REMARK  131 active torsions:
REMARK  status: ('A' for Active; 'I' for Inactive)
REMARK    1  A    between atoms: _1  and  _3
REMARK    2  A    between atoms: _3  and  _4
REMARK    3  A    between atoms: _3  and  _6
REMARK    4  A    between atoms: _6  and  _7
REMARK    5  A    between atoms: _7  and  _8
REMARK    6  A    between atoms: _8  and  _9
REMARK    7  A    between atoms: _9  and  _10
REMARK    8  A    between atoms: _14  and  _16
REMARK    9  A    between atoms: _16  and  _17
REMARK   10  A    between atoms: _16  and  _19
REMARK   11  A    between atoms: _22  and  _24
REMARK   12  A    between atoms: _24  and  _25
REMARK   13  A    between atoms: _24  and  _27
REMARK   14  A    between atoms: _27  and  _28
REMARK   15  A    between atoms: _28  and  _29
REMARK   16  A    between atoms: _29  and  _30
REMARK   17  A    between atoms: _30  and  _31
REMARK   18  A    between atoms: _35  and  _37
REMARK   19  A    between atoms: _37  and  _38
REMARK   20  A    between atoms: _37  and  _40
REMARK   21  A    between atoms: _40  and  _41
REMARK   22  A    between atoms: _43  and  _45
REMARK   23  A    between atoms: _45  and  _46
REMARK   24  A    between atoms: _45  and  _48
REMARK   25  A    between atoms: _48  and  _49
REMARK   26  A    between atoms: _51  and  _53
REMARK   27  A    between atoms: _53  and  _54
REMARK   28  A    between atoms: _53  and  _56
REMARK   29  A    between atoms: _56  and  _57
REMARK   30  A    between atoms: _67  and  _69
REMARK   31  A    between atoms: _69  and  _70
REMARK   32  A    between atoms: _69  and  _72
REMARK   33  A    between atoms: _72  and  _73
REMARK   34  A    between atoms: _73  and  _74
REMARK   35  A    between atoms: _74  and  _75
REMARK   36  A    between atoms: _84  and  _86
REMARK   37  A    between atoms: _86  and  _87
REMARK   38  A    between atoms: _86  and  _89
REMARK   39  A    between atoms: _89  and  _90
REMARK   40  A    between atoms: _90  and  _91
REMARK   41  A    between atoms: _94  and  _96
REMARK   42  A    between atoms: _96  and  _97
REMARK   43  A    between atoms: _96  and  _99
REMARK   44  A    between atoms: _99  and  _100
REMARK   45  A    between atoms: _100  and  _101
REMARK   46  A    between atoms: _101  and  _102
REMARK   47  A    between atoms: _111  and  _113
REMARK   48  A    between atoms: _113  and  _114
REMARK   49  A    between atoms: _113  and  _116
REMARK   50  A    between atoms: _116  and  _117
REMARK   51  A    between atoms: _122  and  _123
REMARK   52  A    between atoms: _125  and  _127
REMARK   53  A    between atoms: _127  and  _128
REMARK   54  A    between atoms: _127  and  _130
REMARK   55  A    between atoms: _130  and  _131
REMARK   56  A    between atoms: _131  and  _132
REMARK   57  A    between atoms: _137  and  _139
REMARK   58  A    between atoms: _139  and  _140
REMARK   59  A    between atoms: _139  and  _142
REMARK   60  A    between atoms: _142  and  _143
REMARK   61  A    between atoms: _143  and  _144
REMARK   62  A    between atoms: _147  and  _149
REMARK   63  A    between atoms: _149  and  _150
REMARK   64  A    between atoms: _149  and  _152
REMARK   65  A    between atoms: _152  and  _153
REMARK   66  A    between atoms: _155  and  _157
REMARK   67  A    between atoms: _157  and  _158
REMARK   68  A    between atoms: _157  and  _160
REMARK   69  A    between atoms: _160  and  _161
REMARK   70  A    between atoms: _161  and  _162
REMARK   71  A    between atoms: _162  and  _163
REMARK   72  A    between atoms: _172  and  _174
REMARK   73  A    between atoms: _174  and  _175
REMARK   74  A    between atoms: _174  and  _177
REMARK   75  A    between atoms: _177  and  _178
REMARK   76  A    between atoms: _178  and  _179
REMARK   77  A    between atoms: _179  and  _180
REMARK   78  A    between atoms: _180  and  _181
REMARK   79  A    between atoms: _185  and  _187
REMARK   80  A    between atoms: _187  and  _188
REMARK   81  A    between atoms: _187  and  _190
REMARK   82  A    between atoms: _193  and  _195
REMARK   83  A    between atoms: _195  and  _196
REMARK   84  A    between atoms: _195  and  _198
REMARK   85  A    between atoms: _198  and  _199
REMARK   86  A    between atoms: _199  and  _200
REMARK   87  A    between atoms: _202  and  _204
REMARK   88  A    between atoms: _204  and  _205
REMARK   89  A    between atoms: _204  and  _207
REMARK   90  A    between atoms: _207  and  _208
REMARK   91  A    between atoms: _208  and  _209
REMARK   92  A    between atoms: _209  and  _210
REMARK   93  A    between atoms: _219  and  _221
REMARK   94  A    between atoms: _221  and  _222
REMARK   95  A    between atoms: _221  and  _224
REMARK   96  A    between atoms: _224  and  _225
REMARK   97  A    between atoms: _227  and  _229
REMARK   98  A    between atoms: _229  and  _230
REMARK   99  A    between atoms: _229  and  _232
REMARK  100  A    between atoms: _232  and  _233
REMARK  101  A    between atoms: _235  and  _237
REMARK  102  A    between atoms: _237  and  _238
REMARK  103  A    between atoms: _237  and  _240
REMARK  104  A    between atoms: _240  and  _241
REMARK  105  A    between atoms: _241  and  _242
REMARK  106  A    between atoms: _247  and  _249
REMARK  107  A    between atoms: _249  and  _250
REMARK  108  A    between atoms: _249  and  _252
REMARK  109  A    between atoms: _252  and  _253
REMARK  110  A    between atoms: _259  and  _261
REMARK  111  A    between atoms: _261  and  _262
REMARK  112  A    between atoms: _261  and  _264
REMARK  113  A    between atoms: _264  and  _265
REMARK  114  A    between atoms: _265  and  _266
REMARK  115  A    between atoms: _266  and  _267
REMARK  116  A    between atoms: _276  and  _278
REMARK  117  A    between atoms: _278  and  _279
REMARK  118  A    between atoms: _278  and  _281
REMARK  119  A    between atoms: _281  and  _282
REMARK  120  A    between atoms: _287  and  _289
REMARK  121  A    between atoms: _289  and  _290
REMARK  122  A    between atoms: _289  and  _292
REMARK  123  A    between atoms: _292  and  _293
REMARK  124  A    between atoms: _296  and  _298
REMARK  125  A    between atoms: _298  and  _299
REMARK  126  A    between atoms: _298  and  _301
REMARK  127  A    between atoms: _301  and  _302
REMARK  128  A    between atoms: _305  and  _307
REMARK  129  A    between atoms: _307  and  _308
REMARK  130  A    between atoms: _307  and  _310
REMARK  131  A    between atoms: _310  and  _311
REMARK                            x       y       z     vdW  Elec       q    Type
REMARK                         _______ _______ _______ _____ _____    ______ ____
ROOT
ATOM      1  C   VAL A   2      27.091  21.923   9.575  0.00  0.00    +0.241 C 
ATOM      2  O   VAL A   2      27.317  21.261  10.600  0.00  0.00    -0.273 OA
ATOM      3  N   LYS A   3      28.041  22.561   8.892  0.00  0.00    -0.297 N 
ATOM      4  H   LYS A   3      27.781  23.068   8.022  0.00  0.00    +0.150 HD
ENDROOT
BRANCH   3   5
ATOM      5  CA  LYS A   3      29.446  22.572   9.328  0.00  0.00    +0.149 C 
BRANCH   5   6
ATOM      6  C   LYS A   3      29.996  23.997   9.553  0.00  0.00    +0.241 C 
ATOM      7  O   LYS A   3      30.889  24.186  10.356  0.00  0.00    -0.273 OA
ATOM      8  N   SER A   4      29.471  24.990   8.838  0.00  0.00    -0.296 N 
ATOM      9  H   SER A   4      28.738  24.771   8.134  0.00  0.00    +0.150 HD
BRANCH   8  10
ATOM     10  CA  SER A   4      29.894  26.380   9.013  0.00  0.00    +0.166 C 
BRANCH  10  11
ATOM     11  CB  SER A   4      28.762  27.245   8.470  0.00  0.00    +0.229 C 
ATOM     12  OG  SER A   4      27.643  26.753   8.264  0.00  0.00    -0.286 OA
ENDBRANCH  10  11
BRANCH  10  13
ATOM     13  C   SER A   4      31.183  26.676   8.255  0.00  0.00    +0.165 C 
BRANCH  13  14
ATOM     14  O   SER A   4      30.925  26.752   6.871  0.00  0.00    -0.380 OA
ATOM     15  H   SER A   4      31.768  26.944   6.389  0.00  0.00    +0.211 HD
ENDBRANCH  13  14
ENDBRANCH  10  13
ENDBRANCH   8  10
ENDBRANCH   5   6
BRANCH   5  16
ATOM     16  CB  LYS A   3      30.341  21.804   8.353  0.00  0.00    +0.029 C 
BRANCH  16  17
ATOM     17  CG  LYS A   3      30.097  20.284   8.281  0.00  0.00    +0.000 C 
BRANCH  17  18
ATOM     18  CD  LYS A   3      30.324  19.585   9.608  0.00  0.00    -0.024 C 
BRANCH  18  19
ATOM     19  CE  LYS A   3      31.730  19.826  10.158  0.00  0.00    -0.086 C 
BRANCH  19  20
ATOM     20  NZ  LYS A   3      31.987  19.007  11.387  0.00  0.00    +0.380 N 
ATOM     21  HZ1 LYS A   3      31.297  19.262  12.122  0.00  0.00    -0.089 HD
ATOM     22  HZ2 LYS A   3      32.950  19.196  11.733  0.00  0.00    -0.089 HD
ATOM     23  HZ3 LYS A   3      31.892  17.998  11.156  0.00  0.00    -0.089 HD
ENDBRANCH  19  20
ENDBRANCH  18  19
ENDBRANCH  17  18
ENDBRANCH  16  17
ENDBRANCH   5  16
ENDBRANCH   3   5
BRANCH   1  24
ATOM     24  CA  VAL A   2      25.665  22.029   9.019  0.00  0.00    +0.148 C 
BRANCH  24  26
ATOM     25  C   LYS A   1      25.083  20.171   7.472  0.00  0.00    +0.238 C 
ATOM     26  N   VAL A   2      25.104  20.705   8.697  0.00  0.00    -0.297 N 
ATOM     27  H   VAL A   2      24.697  20.148   9.476  0.00  0.00    +0.150 HD
ATOM     28  O   LYS A   1      25.545  20.729   6.453  0.00  0.00    -0.274 OA
BRANCH  25  29
ATOM     29  CA  LYS A   1      24.437  18.786   7.378  0.00  0.00    +0.145 C 
BRANCH  29  30
ATOM     30  N   LYS A   1      23.451  18.852   6.321  0.00  0.00    -0.238 NA
ATOM     31  H   LYS A   1      23.743  18.696   5.335  0.00  0.00    +0.142 HD
ENDBRANCH  29  30
BRANCH  29  32
ATOM     32  CB  LYS A   1      25.501  17.717   7.089  0.00  0.00    +0.026 C 
BRANCH  32  33
ATOM     33  CG  LYS A   1      26.415  17.455   8.277  0.00  0.00    -0.000 C 
BRANCH  33  34
ATOM     34  CD  LYS A   1      27.780  16.923   7.876  0.00  0.00    -0.024 C 
BRANCH  34  35
ATOM     35  CE  LYS A   1      27.793  15.449   7.686  0.00  0.00    -0.086 C 
BRANCH  35  36
ATOM     36  NZ  LYS A   1      29.172  15.004   7.412  0.00  0.00    +0.380 N 
ATOM     37  HZ1 LYS A   1      29.783  15.257   8.215  0.00  0.00    -0.089 HD
ATOM     38  HZ2 LYS A   1      29.182  13.973   7.279  0.00  0.00    -0.089 HD
ATOM     39  HZ3 LYS A   1      29.520  15.470   6.550  0.00  0.00    -0.089 HD
ENDBRANCH  35  36
ENDBRANCH  34  35
ENDBRANCH  33  34
ENDBRANCH  32  33
ENDBRANCH  29  32
ENDBRANCH  25  29
ENDBRANCH  24  26
BRANCH  24  40
ATOM     40  CB  VAL A   2      24.783  22.770  10.094  0.00  0.00    +0.027 C 
ATOM     41  CG2 VAL A   2      25.417  24.103  10.509  0.00  0.00    +0.002 C 
ATOM     42  CG1 VAL A   2      23.385  23.017   9.548  0.00  0.00    +0.002 C 
ENDBRANCH  24  40
ENDBRANCH   1  24
TORSDOF 21
REMARK  Name = ../refined-set-2016/1mai/1mai_pocket.pdb
REMARK  131 active torsions:
REMARK  status: ('A' for Active; 'I' for Inactive)
REMARK    1  A    between atoms: _1  and  _3
REMARK    2  A    between atoms: _3  and  _4
REMARK    3  A    between atoms: _3  and  _6
REMARK    4  A    between atoms: _6  and  _7
REMARK    5  A    between atoms: _7  and  _8
REMARK    6  A    between atoms: _8  and  _9
REMARK    7  A    between atoms: _9  and  _10
REMARK    8  A    between atoms: _14  and  _16
REMARK    9  A    between atoms: _16  and  _17
REMARK   10  A    between atoms: _16  and  _19
REMARK   11  A    between atoms: _22  and  _24
REMARK   12  A    between atoms: _24  and  _25
REMARK   13  A    between atoms: _24  and  _27
REMARK   14  A    between atoms: _27  and  _28
REMARK   15  A    between atoms: _28  and  _29
REMARK   16  A    between atoms: _29  and  _30
REMARK   17  A    between atoms: _30  and  _31
REMARK   18  A    between atoms: _35  and  _37
REMARK   19  A    between atoms: _37  and  _38
REMARK   20  A    between atoms: _37  and  _40
REMARK   21  A    between atoms: _40  and  _41
REMARK   22  A    between atoms: _43  and  _45
REMARK   23  A    between atoms: _45  and  _46
REMARK   24  A    between atoms: _45  and  _48
REMARK   25  A    between atoms: _48  and  _49
REMARK   26  A    between atoms: _51  and  _53
REMARK   27  A    between atoms: _53  and  _54
REMARK   28  A    between atoms: _53  and  _56
REMARK   29  A    between atoms: _56  and  _57
REMARK   30  A    between atoms: _67  and  _69
REMARK   31  A    between atoms: _69  and  _70
REMARK   32  A    between atoms: _69  and  _72
REMARK   33  A    between atoms: _72  and  _73
REMARK   34  A    between atoms: _73  and  _74
REMARK   35  A    between atoms: _74  and  _75
REMARK   36  A    between atoms: _84  and  _86
REMARK   37  A    between atoms: _86  and  _87
REMARK   38  A    between atoms: _86  and  _89
REMARK   39  A    between atoms: _89  and  _90
REMARK   40  A    between atoms: _90  and  _91
REMARK   41  A    between atoms: _94  and  _96
REMARK   42  A    between atoms: _96  and  _97
REMARK   43  A    between atoms: _96  and  _99
REMARK   44  A    between atoms: _99  and  _100
REMARK   45  A    between atoms: _100  and  _101
REMARK   46  A    between atoms: _101  and  _102
REMARK   47  A    between atoms: _111  and  _113
REMARK   48  A    between atoms: _113  and  _114
REMARK   49  A    between atoms: _113  and  _116
REMARK   50  A    between atoms: _116  and  _117
REMARK   51  A    between atoms: _122  and  _123
REMARK   52  A    between atoms: _125  and  _127
REMARK   53  A    between atoms: _127  and  _128
REMARK   54  A    between atoms: _127  and  _130
REMARK   55  A    between atoms: _130  and  _131
REMARK   56  A    between atoms: _131  and  _132
REMARK   57  A    between atoms: _137  and  _139
REMARK   58  A    between atoms: _139  and  _140
REMARK   59  A    between atoms: _139  and  _142
REMARK   60  A    between atoms: _142  and  _143
REMARK   61  A    between atoms: _143  and  _144
REMARK   62  A    between atoms: _147  and  _149
REMARK   63  A    between atoms: _149  and  _150
REMARK   64  A    between atoms: _149  and  _152
REMARK   65  A    between atoms: _152  and  _153
REMARK   66  A    between atoms: _155  and  _157
REMARK   67  A    between atoms: _157  and  _158
REMARK   68  A    between atoms: _157  and  _160
REMARK   69  A    between atoms: _160  and  _161
REMARK   70  A    between atoms: _161  and  _162
REMARK   71  A    between atoms: _162  and  _163
REMARK   72  A    between atoms: _172  and  _174
REMARK   73  A    between atoms: _174  and  _175
REMARK   74  A    between atoms: _174  and  _177
REMARK   75  A    between atoms: _177  and  _178
REMARK   76  A    between atoms: _178  and  _179
REMARK   77  A    between atoms: _179  and  _180
REMARK   78  A    between atoms: _180  and  _181
REMARK   79  A    between atoms: _185  and  _187
REMARK   80  A    between atoms: _187  and  _188
REMARK   81  A    between atoms: _187  and  _190
REMARK   82  A    between atoms: _193  and  _195
REMARK   83  A    between atoms: _195  and  _196
REMARK   84  A    between atoms: _195  and  _198
REMARK   85  A    between atoms: _198  and  _199
REMARK   86  A    between atoms: _199  and  _200
REMARK   87  A    between atoms: _202  and  _204
REMARK   88  A    between atoms: _204  and  _205
REMARK   89  A    between atoms: _204  and  _207
REMARK   90  A    between atoms: _207  and  _208
REMARK   91  A    between atoms: _208  and  _209
REMARK   92  A    between atoms: _209  and  _210
REMARK   93  A    between atoms: _219  and  _221
REMARK   94  A    between atoms: _221  and  _222
REMARK   95  A    between atoms: _221  and  _224
REMARK   96  A    between atoms: _224  and  _225
REMARK   97  A    between atoms: _227  and  _229
REMARK   98  A    between atoms: _229  and  _230
REMARK   99  A    between atoms: _229  and  _232
REMARK  100  A    between atoms: _232  and  _233
REMARK  101  A    between atoms: _235  and  _237
REMARK  102  A    between atoms: _237  and  _238
REMARK  103  A    between atoms: _237  and  _240
REMARK  104  A    between atoms: _240  and  _241
REMARK  105  A    between atoms: _241  and  _242
REMARK  106  A    between atoms: _247  and  _249
REMARK  107  A    between atoms: _249  and  _250
REMARK  108  A    between atoms: _249  and  _252
REMARK  109  A    between atoms: _252  and  _253
REMARK  110  A    between atoms: _259  and  _261
REMARK  111  A    between atoms: _261  and  _262
REMARK  112  A    between atoms: _261  and  _264
REMARK  113  A    between atoms: _264  and  _265
REMARK  114  A    between atoms: _265  and  _266
REMARK  115  A    between atoms: _266  and  _267
REMARK  116  A    between atoms: _276  and  _278
REMARK  117  A    between atoms: _278  and  _279
REMARK  118  A    between atoms: _278  and  _281
REMARK  119  A    between atoms: _281  and  _282
REMARK  120  A    between atoms: _287  and  _289
REMARK  121  A    between atoms: _289  and  _290
REMARK  122  A    between atoms: _289  and  _292
REMARK  123  A    between atoms: _292  and  _293
REMARK  124  A    between atoms: _296  and  _298
REMARK  125  A    between atoms: _298  and  _299
REMARK  126  A    between atoms: _298  and  _301
REMARK  127  A    between atoms: _301  and  _302
REMARK  128  A    between atoms: _305  and  _307
REMARK  129  A    between atoms: _307  and  _308
REMARK  130  A    between atoms: _307  and  _310
REMARK  131  A    between atoms: _310  and  _311
REMARK                            x       y       z     vdW  Elec       q    Type
REMARK                         _______ _______ _______ _____ _____    ______ ____
ROOT
ATOM      1  CA  TRP A   2      28.981  24.664   4.459  0.00  0.00    +0.141 C 
ENDROOT
BRANCH   1   3
ATOM      2  C   SER A   1      28.410  26.973   3.933  0.00  0.00    +0.241 C 
ATOM      3  N   TRP A   2      29.146  26.107   4.619  0.00  0.00    -0.298 N 
ATOM      4  H   TRP A   2      29.858  26.465   5.287  0.00  0.00    +0.150 HD
ATOM      5  O   SER A   1      27.545  26.623   3.134  0.00  0.00    -0.274 OA
BRANCH   2   6
ATOM      6  CA  SER A   1      28.692  28.455   4.156  0.00  0.00    +0.174 C 
BRANCH   6   7
ATOM      7  N   SER A   1      28.785  28.799   5.562  0.00  0.00    -0.236 NA
ATOM      8  H   SER A   1      29.715  28.744   6.025  0.00  0.00    +0.142 HD
ENDBRANCH   6   7
BRANCH   6   9
ATOM      9  CB  SER A   1      29.992  28.831   3.450  0.00  0.00    +0.163 C 
BRANCH   9  10
ATOM     10  OG  SER A   1      31.100  28.214   4.095  0.00  0.00    -0.380 OA
ATOM     11  H   SER A   1      30.990  27.230   4.069  0.00  0.00    +0.211 HD
ENDBRANCH   9  10
ENDBRANCH   6   9
ENDBRANCH   2   6
ENDBRANCH   1   3
BRANCH   1  12
ATOM     12  C   TRP A   2      27.689  24.154   5.105  0.00  0.00    +0.227 C 
ATOM     13  O   TRP A   2      27.605  23.996   6.328  0.00  0.00    -0.286 OA
ENDBRANCH   1  12
BRANCH   1  14
ATOM     14  CB  TRP A   2      30.196  23.931   5.057  0.00  0.00    +0.056 C 
BRANCH  14  15
ATOM     15  CG  TRP A   2      30.566  22.623   4.387  0.00  0.00    -0.002 A 
ATOM     16  CD2 TRP A   2      29.887  21.352   4.503  0.00  0.00    +0.013 A 
ATOM     17  CE3 TRP A   2      28.762  20.905   5.211  0.00  0.00    +0.001 A 
ATOM     18  CZ3 TRP A   2      28.374  19.575   5.079  0.00  0.00    +0.000 A 
ATOM     19  CH2 TRP A   2      29.083  18.686   4.257  0.00  0.00    +0.001 A 
ATOM     20  CZ2 TRP A   2      30.181  19.092   3.556  0.00  0.00    +0.017 A 
ATOM     21  CE2 TRP A   2      30.579  20.435   3.687  0.00  0.00    +0.056 A 
ATOM     22  NE1 TRP A   2      31.626  21.111   3.110  0.00  0.00    -0.352 N 
ATOM     23  HE1 TRP A   2      32.320  20.698   2.454  0.00  0.00    +0.166 HD
ATOM     24  CD1 TRP A   2      31.613  22.419   3.535  0.00  0.00    +0.068 A 
ENDBRANCH  14  15
ENDBRANCH   1  14
TORSDOF 8
REMARK  Name = ../refined-set-2016/1mai/1mai_pocket.pdb
REMARK  131 active torsions:
REMARK  status: ('A' for Active; 'I' for Inactive)
REMARK    1  A    between atoms: _1  and  _3
REMARK    2  A    between atoms: _3  and  _4
REMARK    3  A    between atoms: _3  and  _6
REMARK    4  A    between atoms: _6  and  _7
REMARK    5  A    between atoms: _7  and  _8
REMARK    6  A    between atoms: _8  and  _9
REMARK    7  A    between atoms: _9  and  _10
REMARK    8  A    between atoms: _14  and  _16
REMARK    9  A    between atoms: _16  and  _17
REMARK   10  A    between atoms: _16  and  _19
REMARK   11  A    between atoms: _22  and  _24
REMARK   12  A    between atoms: _24  and  _25
REMARK   13  A    between atoms: _24  and  _27
REMARK   14  A    between atoms: _27  and  _28
REMARK   15  A    between atoms: _28  and  _29
REMARK   16  A    between atoms: _29  and  _30
REMARK   17  A    between atoms: _30  and  _31
REMARK   18  A    between atoms: _35  and  _37
REMARK   19  A    between atoms: _37  and  _38
REMARK   20  A    between atoms: _37  and  _40
REMARK   21  A    between atoms: _40  and  _41
REMARK   22  A    between atoms: _43  and  _45
REMARK   23  A    between atoms: _45  and  _46
REMARK   24  A    between atoms: _45  and  _48
REMARK   25  A    between atoms: _48  and  _49
REMARK   26  A    between atoms: _51  and  _53
REMARK   27  A    between atoms: _53  and  _54
REMARK   28  A    between atoms: _53  and  _56
REMARK   29  A    between atoms: _56  and  _57
REMARK   30  A    between atoms: _67  and  _69
REMARK   31  A    between atoms: _69  and  _70
REMARK   32  A    between atoms: _69  and  _72
REMARK   33  A    between atoms: _72  and  _73
REMARK   34  A    between atoms: _73  and  _74
REMARK   35  A    between atoms: _74  and  _75
REMARK   36  A    between atoms: _84  and  _86
REMARK   37  A    between atoms: _86  and  _87
REMARK   38  A    between atoms: _86  and  _89
REMARK   39  A    between atoms: _89  and  _90
REMARK   40  A    between atoms: _90  and  _91
REMARK   41  A    between atoms: _94  and  _96
REMARK   42  A    between atoms: _96  and  _97
REMARK   43  A    between atoms: _96  and  _99
REMARK   44  A    between atoms: _99  and  _100
REMARK   45  A    between atoms: _100  and  _101
REMARK   46  A    between atoms: _101  and  _102
REMARK   47  A    between atoms: _111  and  _113
REMARK   48  A    between atoms: _113  and  _114
REMARK   49  A    between atoms: _113  and  _116
REMARK   50  A    between atoms: _116  and  _117
REMARK   51  A    between atoms: _122  and  _123
REMARK   52  A    between atoms: _125  and  _127
REMARK   53  A    between atoms: _127  and  _128
REMARK   54  A    between atoms: _127  and  _130
REMARK   55  A    between atoms: _130  and  _131
REMARK   56  A    between atoms: _131  and  _132
REMARK   57  A    between atoms: _137  and  _139
REMARK   58  A    between atoms: _139  and  _140
REMARK   59  A    between atoms: _139  and  _142
REMARK   60  A    between atoms: _142  and  _143
REMARK   61  A    between atoms: _143  and  _144
REMARK   62  A    between atoms: _147  and  _149
REMARK   63  A    between atoms: _149  and  _150
REMARK   64  A    between atoms: _149  and  _152
REMARK   65  A    between atoms: _152  and  _153
REMARK   66  A    between atoms: _155  and  _157
REMARK   67  A    between atoms: _157  and  _158
REMARK   68  A    between atoms: _157  and  _160
REMARK   69  A    between atoms: _160  and  _161
REMARK   70  A    between atoms: _161  and  _162
REMARK   71  A    between atoms: _162  and  _163
REMARK   72  A    between atoms: _172  and  _174
REMARK   73  A    between atoms: _174  and  _175
REMARK   74  A    between atoms: _174  and  _177
REMARK   75  A    between atoms: _177  and  _178
REMARK   76  A    between atoms: _178  and  _179
REMARK   77  A    between atoms: _179  and  _180
REMARK   78  A    between atoms: _180  and  _181
REMARK   79  A    between atoms: _185  and  _187
REMARK   80  A    between atoms: _187  and  _188
REMARK   81  A    between atoms: _187  and  _190
REMARK   82  A    between atoms: _193  and  _195
REMARK   83  A    between atoms: _195  and  _196
REMARK   84  A    between atoms: _195  and  _198
REMARK   85  A    between atoms: _198  and  _199
REMARK   86  A    between atoms: _199  and  _200
REMARK   87  A    between atoms: _202  and  _204
REMARK   88  A    between atoms: _204  and  _205
REMARK   89  A    between atoms: _204  and  _207
REMARK   90  A    between atoms: _207  and  _208
REMARK   91  A    between atoms: _208  and  _209
REMARK   92  A    between atoms: _209  and  _210
REMARK   93  A    between atoms: _219  and  _221
REMARK   94  A    between atoms: _221  and  _222
REMARK   95  A    between atoms: _221  and  _224
REMARK   96  A    between atoms: _224  and  _225
REMARK   97  A    between atoms: _227  and  _229
REMARK   98  A    between atoms: _229  and  _230
REMARK   99  A    between atoms: _229  and  _232
REMARK  100  A    between atoms: _232  and  _233
REMARK  101  A    between atoms: _235  and  _237
REMARK  102  A    between atoms: _237  and  _238
REMARK  103  A    between atoms: _237  and  _240
REMARK  104  A    between atoms: _240  and  _241
REMARK  105  A    between atoms: _241  and  _242
REMARK  106  A    between atoms: _247  and  _249
REMARK  107  A    between atoms: _249  and  _250
REMARK  108  A    between atoms: _249  and  _252
REMARK  109  A    between atoms: _252  and  _253
REMARK  110  A    between atoms: _259  and  _261
REMARK  111  A    between atoms: _261  and  _262
REMARK  112  A    between atoms: _261  and  _264
REMARK  113  A    between atoms: _264  and  _265
REMARK  114  A    between atoms: _265  and  _266
REMARK  115  A    between atoms: _266  and  _267
REMARK  116  A    between atoms: _276  and  _278
REMARK  117  A    between atoms: _278  and  _279
REMARK  118  A    between atoms: _278  and  _281
REMARK  119  A    between atoms: _281  and  _282
REMARK  120  A    between atoms: _287  and  _289
REMARK  121  A    between atoms: _289  and  _290
REMARK  122  A    between atoms: _289  and  _292
REMARK  123  A    between atoms: _292  and  _293
REMARK  124  A    between atoms: _296  and  _298
REMARK  125  A    between atoms: _298  and  _299
REMARK  126  A    between atoms: _298  and  _301
REMARK  127  A    between atoms: _301  and  _302
REMARK  128  A    between atoms: _305  and  _307
REMARK  129  A    between atoms: _307  and  _308
REMARK  130  A    between atoms: _307  and  _310
REMARK  131  A    between atoms: _310  and  _311
REMARK                            x       y       z     vdW  Elec       q    Type
REMARK                         _______ _______ _______ _____ _____    ______ ____
ROOT
ATOM      1  CA  GLU A   2      22.441  17.810   1.564  0.00  0.00    +0.149 C 
ENDROOT
BRANCH   1   4
ATOM      2  C   ARG A   1      24.072  19.284   2.607  0.00  0.00    +0.238 C 
ATOM      3  O   ARG A   1      23.999  18.733   3.701  0.00  0.00    -0.274 OA
ATOM      4  N   GLU A   2      23.392  18.902   1.534  0.00  0.00    -0.297 N 
ATOM      5  H   GLU A   2      23.548  19.406   0.637  0.00  0.00    +0.150 HD
BRANCH   2   6
ATOM      6  CA  ARG A   1      24.988  20.442   2.385  0.00  0.00    +0.145 C 
BRANCH   6   7
ATOM      7  N   ARG A   1      25.236  21.275   3.541  0.00  0.00    -0.238 NA
ATOM      8  H   ARG A   1      25.610  20.852   4.415  0.00  0.00    +0.142 HD
ENDBRANCH   6   7
BRANCH   6   9
ATOM      9  CB  ARG A   1      26.326  19.965   1.822  0.00  0.00    +0.030 C 
BRANCH   9  10
ATOM     10  CG  ARG A   1      27.202  21.132   1.411  0.00  0.00    +0.045 C 
BRANCH  10  11
ATOM     11  CD  ARG A   1      28.514  20.757   0.826  0.00  0.00    +0.174 C 
BRANCH  11  12
ATOM     12  NE  ARG A   1      29.322  21.957   0.665  0.00  0.00    -0.265 N 
ATOM     13  HE  ARG A   1      28.957  22.844   1.066  0.00  0.00    +0.259 HD
ATOM     14  CZ  ARG A   1      30.492  21.997   0.042  0.00  0.00    +0.342 C 
ATOM     15  NH2 ARG A   1      31.164  23.141  -0.031  0.00  0.00    -0.292 N 
ATOM     16 HH21 ARG A   1      30.772  24.003   0.400  0.00  0.00    +0.255 HD
ATOM     17 HH22 ARG A   1      32.082  23.175  -0.519  0.00  0.00    +0.255 HD
ATOM     18  NH1 ARG A   1      30.997  20.891  -0.492  0.00  0.00    -0.292 N 
ATOM     19 HH11 ARG A   1      30.475  19.994  -0.421  0.00  0.00    +0.255 HD
ATOM     20 HH12 ARG A   1      31.914  20.922  -0.981  0.00  0.00    +0.255 HD
ENDBRANCH  11  12
ENDBRANCH  10  11
ENDBRANCH   9  10
ENDBRANCH   6   9
ENDBRANCH   2   6
ENDBRANCH   1   4
BRANCH   1  21
ATOM     21  C   GLU A   2      23.137  16.465   1.730  0.00  0.00    +0.241 C 
ATOM     22  N   ARG A   3      22.596  15.641   2.611  0.00  0.00    -0.298 N 
ATOM     23  H   ARG A   3      21.740  15.941   3.120  0.00  0.00    +0.150 HD
ATOM     24  O   GLU A   2      24.104  16.164   1.042  0.00  0.00    -0.273 OA
BRANCH  22  25
ATOM     25  CA  ARG A   3      23.153  14.339   2.890  0.00  0.00    +0.137 C 
BRANCH  25  26
ATOM     26  C   ARG A   3      21.963  13.445   3.183  0.00  0.00    +0.227 C 
ATOM     27  O   ARG A   3      21.030  13.853   3.865  0.00  0.00    -0.286 OA
ENDBRANCH  25  26
BRANCH  25  28
ATOM     28  CB  ARG A   3      24.076  14.415   4.110  0.00  0.00    +0.031 C 
BRANCH  28  29
ATOM     29  CG  ARG A   3      25.415  15.139   3.896  0.00  0.00    +0.045 C 
BRANCH  29  30
ATOM     30  CD  ARG A   3      26.304  14.330   2.948  0.00  0.00    +0.174 C 
BRANCH  30  31
ATOM     31  NE  ARG A   3      27.675  14.838   2.794  0.00  0.00    -0.265 N 
ATOM     32  HE  ARG A   3      28.406  14.444   3.420  0.00  0.00    +0.259 HD
ATOM     33  CZ  ARG A   3      28.052  15.764   1.914  0.00  0.00    +0.342 C 
ATOM     34  NH2 ARG A   3      29.323  16.134   1.844  0.00  0.00    -0.292 N 
ATOM     35 HH21 ARG A   3      30.026  15.701   2.476  0.00  0.00    +0.255 HD
ATOM     36 HH22 ARG A   3      29.617  16.857   1.157  0.00  0.00    +0.255 HD
ATOM     37  NH1 ARG A   3      27.166  16.319   1.093  0.00  0.00    -0.292 N 
ATOM     38 HH11 ARG A   3      26.167  16.031   1.134  0.00  0.00    +0.255 HD
ATOM     39 HH12 ARG A   3      27.471  17.041   0.410  0.00  0.00    +0.255 HD
ENDBRANCH  30  31
ENDBRANCH  29  30
ENDBRANCH  28  29
ENDBRANCH  25  28
ENDBRANCH  22  25
ENDBRANCH   1  21
BRANCH   1  40
ATOM     40  CB  GLU A   2      21.643  17.831   0.281  0.00  0.00    +0.041 C 
BRANCH  40  41
ATOM     41  CG  GLU A   2      20.414  16.984   0.291  0.00  0.00    +0.116 C 
BRANCH  41  42
ATOM     42  CD  GLU A   2      19.780  16.952  -1.077  0.00  0.00    +0.365 C 
ATOM     43  OE2 GLU A   2      18.598  17.337  -1.194  0.00  0.00    -0.246 OA
ATOM     44  OE1 GLU A   2      20.481  16.564  -2.043  0.00  0.00    -0.246 OA
ENDBRANCH  41  42
ENDBRANCH  40  41
ENDBRANCH   1  40
TORSDOF 17
REMARK  Name = ../refined-set-2016/1mai/1mai_pocket.pdb
REMARK  131 active torsions:
REMARK  status: ('A' for Active; 'I' for Inactive)
REMARK    1  A    between atoms: _1  and  _3
REMARK    2  A    between atoms: _3  and  _4
REMARK    3  A    between atoms: _3  and  _6
REMARK    4  A    between atoms: _6  and  _7
REMARK    5  A    between atoms: _7  and  _8
REMARK    6  A    between atoms: _8  and  _9
REMARK    7  A    between atoms: _9  and  _10
REMARK    8  A    between atoms: _14  and  _16
REMARK    9  A    between atoms: _16  and  _17
REMARK   10  A    between atoms: _16  and  _19
REMARK   11  A    between atoms: _22  and  _24
REMARK   12  A    between atoms: _24  and  _25
REMARK   13  A    between atoms: _24  and  _27
REMARK   14  A    between atoms: _27  and  _28
REMARK   15  A    between atoms: _28  and  _29
REMARK   16  A    between atoms: _29  and  _30
REMARK   17  A    between atoms: _30  and  _31
REMARK   18  A    between atoms: _35  and  _37
REMARK   19  A    between atoms: _37  and  _38
REMARK   20  A    between atoms: _37  and  _40
REMARK   21  A    between atoms: _40  and  _41
REMARK   22  A    between atoms: _43  and  _45
REMARK   23  A    between atoms: _45  and  _46
REMARK   24  A    between atoms: _45  and  _48
REMARK   25  A    between atoms: _48  and  _49
REMARK   26  A    between atoms: _51  and  _53
REMARK   27  A    between atoms: _53  and  _54
REMARK   28  A    between atoms: _53  and  _56
REMARK   29  A    between atoms: _56  and  _57
REMARK   30  A    between atoms: _67  and  _69
REMARK   31  A    between atoms: _69  and  _70
REMARK   32  A    between atoms: _69  and  _72
REMARK   33  A    between atoms: _72  and  _73
REMARK   34  A    between atoms: _73  and  _74
REMARK   35  A    between atoms: _74  and  _75
REMARK   36  A    between atoms: _84  and  _86
REMARK   37  A    between atoms: _86  and  _87
REMARK   38  A    between atoms: _86  and  _89
REMARK   39  A    between atoms: _89  and  _90
REMARK   40  A    between atoms: _90  and  _91
REMARK   41  A    between atoms: _94  and  _96
REMARK   42  A    between atoms: _96  and  _97
REMARK   43  A    between atoms: _96  and  _99
REMARK   44  A    between atoms: _99  and  _100
REMARK   45  A    between atoms: _100  and  _101
REMARK   46  A    between atoms: _101  and  _102
REMARK   47  A    between atoms: _111  and  _113
REMARK   48  A    between atoms: _113  and  _114
REMARK   49  A    between atoms: _113  and  _116
REMARK   50  A    between atoms: _116  and  _117
REMARK   51  A    between atoms: _122  and  _123
REMARK   52  A    between atoms: _125  and  _127
REMARK   53  A    between atoms: _127  and  _128
REMARK   54  A    between atoms: _127  and  _130
REMARK   55  A    between atoms: _130  and  _131
REMARK   56  A    between atoms: _131  and  _132
REMARK   57  A    between atoms: _137  and  _139
REMARK   58  A    between atoms: _139  and  _140
REMARK   59  A    between atoms: _139  and  _142
REMARK   60  A    between atoms: _142  and  _143
REMARK   61  A    between atoms: _143  and  _144
REMARK   62  A    between atoms: _147  and  _149
REMARK   63  A    between atoms: _149  and  _150
REMARK   64  A    between atoms: _149  and  _152
REMARK   65  A    between atoms: _152  and  _153
REMARK   66  A    between atoms: _155  and  _157
REMARK   67  A    between atoms: _157  and  _158
REMARK   68  A    between atoms: _157  and  _160
REMARK   69  A    between atoms: _160  and  _161
REMARK   70  A    between atoms: _161  and  _162
REMARK   71  A    between atoms: _162  and  _163
REMARK   72  A    between atoms: _172  and  _174
REMARK   73  A    between atoms: _174  and  _175
REMARK   74  A    between atoms: _174  and  _177
REMARK   75  A    between atoms: _177  and  _178
REMARK   76  A    between atoms: _178  and  _179
REMARK   77  A    between atoms: _179  and  _180
REMARK   78  A    between atoms: _180  and  _181
REMARK   79  A    between atoms: _185  and  _187
REMARK   80  A    between atoms: _187  and  _188
REMARK   81  A    between atoms: _187  and  _190
REMARK   82  A    between atoms: _193  and  _195
REMARK   83  A    between atoms: _195  and  _196
REMARK   84  A    between atoms: _195  and  _198
REMARK   85  A    between atoms: _198  and  _199
REMARK   86  A    between atoms: _199  and  _200
REMARK   87  A    between atoms: _202  and  _204
REMARK   88  A    between atoms: _204  and  _205
REMARK   89  A    between atoms: _204  and  _207
REMARK   90  A    between atoms: _207  and  _208
REMARK   91  A    between atoms: _208  and  _209
REMARK   92  A    between atoms: _209  and  _210
REMARK   93  A    between atoms: _219  and  _221
REMARK   94  A    between atoms: _221  and  _222
REMARK   95  A    between atoms: _221  and  _224
REMARK   96  A    between atoms: _224  and  _225
REMARK   97  A    between atoms: _227  and  _229
REMARK   98  A    between atoms: _229  and  _230
REMARK   99  A    between atoms: _229  and  _232
REMARK  100  A    between atoms: _232  and  _233
REMARK  101  A    between atoms: _235  and  _237
REMARK  102  A    between atoms: _237  and  _238
REMARK  103  A    between atoms: _237  and  _240
REMARK  104  A    between atoms: _240  and  _241
REMARK  105  A    between atoms: _241  and  _242
REMARK  106  A    between atoms: _247  and  _249
REMARK  107  A    between atoms: _249  and  _250
REMARK  108  A    between atoms: _249  and  _252
REMARK  109  A    between atoms: _252  and  _253
REMARK  110  A    between atoms: _259  and  _261
REMARK  111  A    between atoms: _261  and  _262
REMARK  112  A    between atoms: _261  and  _264
REMARK  113  A    between atoms: _264  and  _265
REMARK  114  A    between atoms: _265  and  _266
REMARK  115  A    between atoms: _266  and  _267
REMARK  116  A    between atoms: _276  and  _278
REMARK  117  A    between atoms: _278  and  _279
REMARK  118  A    between atoms: _278  and  _281
REMARK  119  A    between atoms: _281  and  _282
REMARK  120  A    between atoms: _287  and  _289
REMARK  121  A    between atoms: _289  and  _290
REMARK  122  A    between atoms: _289  and  _292
REMARK  123  A    between atoms: _292  and  _293
REMARK  124  A    between atoms: _296  and  _298
REMARK  125  A    between atoms: _298  and  _299
REMARK  126  A    between atoms: _298  and  _301
REMARK  127  A    between atoms: _301  and  _302
REMARK  128  A    between atoms: _305  and  _307
REMARK  129  A    between atoms: _307  and  _308
REMARK  130  A    between atoms: _307  and  _310
REMARK  131  A    between atoms: _310  and  _311
REMARK                            x       y       z     vdW  Elec       q    Type
REMARK                         _______ _______ _______ _____ _____    ______ ____
ROOT
ATOM      1  CG  TYR A   1      21.502  11.068   7.509  0.00  0.00    -0.020 A 
ATOM      2  CD2 TYR A   1      22.697  10.647   8.116  0.00  0.00    -0.001 A 
ATOM      3  CE2 TYR A   1      23.785  11.502   8.235  0.00  0.00    +0.036 A 
ATOM      4  CZ  TYR A   1      23.674  12.786   7.742  0.00  0.00    +0.134 A 
ATOM      5  CE1 TYR A   1      22.504  13.233   7.149  0.00  0.00    +0.036 A 
ATOM      6  CD1 TYR A   1      21.428  12.373   7.038  0.00  0.00    -0.001 A 
ENDROOT
BRANCH   4   7
ATOM      7  OH  TYR A   1      24.731  13.636   7.784  0.00  0.00    -0.506 OA
ATOM      8  HH  TYR A   1      25.494  13.191   8.231  0.00  0.00    +0.292 HD
ENDBRANCH   4   7
BRANCH   1   9
ATOM      9  CB  TYR A   1      20.353  10.120   7.314  0.00  0.00    +0.051 C 
BRANCH   9  10
ATOM     10  CA  TYR A   1      20.465   9.295   6.025  0.00  0.00    +0.137 C 
BRANCH  10  11
ATOM     11  N   TYR A   1      20.292  10.144   4.855  0.00  0.00    -0.239 NA
ATOM     12  H   TYR A   1      19.365  10.592   4.707  0.00  0.00    +0.142 HD
ENDBRANCH  10  11
BRANCH  10  13
ATOM     13  C   TYR A   1      19.363   8.262   6.001  0.00  0.00    +0.224 C 
ATOM     14  O   TYR A   1      18.240   8.564   5.627  0.00  0.00    -0.287 OA
ENDBRANCH  10  13
ENDBRANCH   9  10
ENDBRANCH   1   9
TORSDOF 5
REMARK  Name = ../refined-set-2016/1mai/1mai_pocket.pdb
REMARK  131 active torsions:
REMARK  status: ('A' for Active; 'I' for Inactive)
REMARK    1  A    between atoms: _1  and  _3
REMARK    2  A    between atoms: _3  and  _4
REMARK    3  A    between atoms: _3  and  _6
REMARK    4  A    between atoms: _6  and  _7
REMARK    5  A    between atoms: _7  and  _8
REMARK    6  A    between atoms: _8  and  _9
REMARK    7  A    between atoms: _9  and  _10
REMARK    8  A    between atoms: _14  and  _16
REMARK    9  A    between atoms: _16  and  _17
REMARK   10  A    between atoms: _16  and  _19
REMARK   11  A    between atoms: _22  and  _24
REMARK   12  A    between atoms: _24  and  _25
REMARK   13  A    between atoms: _24  and  _27
REMARK   14  A    between atoms: _27  and  _28
REMARK   15  A    between atoms: _28  and  _29
REMARK   16  A    between atoms: _29  and  _30
REMARK   17  A    between atoms: _30  and  _31
REMARK   18  A    between atoms: _35  and  _37
REMARK   19  A    between atoms: _37  and  _38
REMARK   20  A    between atoms: _37  and  _40
REMARK   21  A    between atoms: _40  and  _41
REMARK   22  A    between atoms: _43  and  _45
REMARK   23  A    between atoms: _45  and  _46
REMARK   24  A    between atoms: _45  and  _48
REMARK   25  A    between atoms: _48  and  _49
REMARK   26  A    between atoms: _51  and  _53
REMARK   27  A    between atoms: _53  and  _54
REMARK   28  A    between atoms: _53  and  _56
REMARK   29  A    between atoms: _56  and  _57
REMARK   30  A    between atoms: _67  and  _69
REMARK   31  A    between atoms: _69  and  _70
REMARK   32  A    between atoms: _69  and  _72
REMARK   33  A    between atoms: _72  and  _73
REMARK   34  A    between atoms: _73  and  _74
REMARK   35  A    between atoms: _74  and  _75
REMARK   36  A    between atoms: _84  and  _86
REMARK   37  A    between atoms: _86  and  _87
REMARK   38  A    between atoms: _86  and  _89
REMARK   39  A    between atoms: _89  and  _90
REMARK   40  A    between atoms: _90  and  _91
REMARK   41  A    between atoms: _94  and  _96
REMARK   42  A    between atoms: _96  and  _97
REMARK   43  A    between atoms: _96  and  _99
REMARK   44  A    between atoms: _99  and  _100
REMARK   45  A    between atoms: _100  and  _101
REMARK   46  A    between atoms: _101  and  _102
REMARK   47  A    between atoms: _111  and  _113
REMARK   48  A    between atoms: _113  and  _114
REMARK   49  A    between atoms: _113  and  _116
REMARK   50  A    between atoms: _116  and  _117
REMARK   51  A    between atoms: _122  and  _123
REMARK   52  A    between atoms: _125  and  _127
REMARK   53  A    between atoms: _127  and  _128
REMARK   54  A    between atoms: _127  and  _130
REMARK   55  A    between atoms: _130  and  _131
REMARK   56  A    between atoms: _131  and  _132
REMARK   57  A    between atoms: _137  and  _139
REMARK   58  A    between atoms: _139  and  _140
REMARK   59  A    between atoms: _139  and  _142
REMARK   60  A    between atoms: _142  and  _143
REMARK   61  A    between atoms: _143  and  _144
REMARK   62  A    between atoms: _147  and  _149
REMARK   63  A    between atoms: _149  and  _150
REMARK   64  A    between atoms: _149  and  _152
REMARK   65  A    between atoms: _152  and  _153
REMARK   66  A    between atoms: _155  and  _157
REMARK   67  A    between atoms: _157  and  _158
REMARK   68  A    between atoms: _157  and  _160
REMARK   69  A    between atoms: _160  and  _161
REMARK   70  A    between atoms: _161  and  _162
REMARK   71  A    between atoms: _162  and  _163
REMARK   72  A    between atoms: _172  and  _174
REMARK   73  A    between atoms: _174  and  _175
REMARK   74  A    between atoms: _174  and  _177
REMARK   75  A    between atoms: _177  and  _178
REMARK   76  A    between atoms: _178  and  _179
REMARK   77  A    between atoms: _179  and  _180
REMARK   78  A    between atoms: _180  and  _181
REMARK   79  A    between atoms: _185  and  _187
REMARK   80  A    between atoms: _187  and  _188
REMARK   81  A    between atoms: _187  and  _190
REMARK   82  A    between atoms: _193  and  _195
REMARK   83  A    between atoms: _195  and  _196
REMARK   84  A    between atoms: _195  and  _198
REMARK   85  A    between atoms: _198  and  _199
REMARK   86  A    between atoms: _199  and  _200
REMARK   87  A    between atoms: _202  and  _204
REMARK   88  A    between atoms: _204  and  _205
REMARK   89  A    between atoms: _204  and  _207
REMARK   90  A    between atoms: _207  and  _208
REMARK   91  A    between atoms: _208  and  _209
REMARK   92  A    between atoms: _209  and  _210
REMARK   93  A    between atoms: _219  and  _221
REMARK   94  A    between atoms: _221  and  _222
REMARK   95  A    between atoms: _221  and  _224
REMARK   96  A    between atoms: _224  and  _225
REMARK   97  A    between atoms: _227  and  _229
REMARK   98  A    between atoms: _229  and  _230
REMARK   99  A    between atoms: _229  and  _232
REMARK  100  A    between atoms: _232  and  _233
REMARK  101  A    between atoms: _235  and  _237
REMARK  102  A    between atoms: _237  and  _238
REMARK  103  A    between atoms: _237  and  _240
REMARK  104  A    between atoms: _240  and  _241
REMARK  105  A    between atoms: _241  and  _242
REMARK  106  A    between atoms: _247  and  _249
REMARK  107  A    between atoms: _249  and  _250
REMARK  108  A    between atoms: _249  and  _252
REMARK  109  A    between atoms: _252  and  _253
REMARK  110  A    between atoms: _259  and  _261
REMARK  111  A    between atoms: _261  and  _262
REMARK  112  A    between atoms: _261  and  _264
REMARK  113  A    between atoms: _264  and  _265
REMARK  114  A    between atoms: _265  and  _266
REMARK  115  A    between atoms: _266  and  _267
REMARK  116  A    between atoms: _276  and  _278
REMARK  117  A    between atoms: _278  and  _279
REMARK  118  A    between atoms: _278  and  _281
REMARK  119  A    between atoms: _281  and  _282
REMARK  120  A    between atoms: _287  and  _289
REMARK  121  A    between atoms: _289  and  _290
REMARK  122  A    between atoms: _289  and  _292
REMARK  123  A    between atoms: _292  and  _293
REMARK  124  A    between atoms: _296  and  _298
REMARK  125  A    between atoms: _298  and  _299
REMARK  126  A    between atoms: _298  and  _301
REMARK  127  A    between atoms: _301  and  _302
REMARK  128  A    between atoms: _305  and  _307
REMARK  129  A    between atoms: _307  and  _308
REMARK  130  A    between atoms: _307  and  _310
REMARK  131  A    between atoms: _310  and  _311
REMARK                            x       y       z     vdW  Elec       q    Type
REMARK                         _______ _______ _______ _____ _____    ______ ____
ROOT
ATOM      1  CA  LYS A   5      34.886  12.480   1.576  0.00  0.00    +0.149 C 
ENDROOT
BRANCH   1   2
ATOM      2  C   LYS A   5      35.809  11.934   0.496  0.00  0.00    +0.241 C 
ATOM      3  N   VAL A   6      36.997  12.528   0.414  0.00  0.00    -0.297 N 
ATOM      4  H   VAL A   6      37.204  13.308   1.070  0.00  0.00    +0.150 HD
ATOM      5  O   LYS A   5      35.442  11.015  -0.250  0.00  0.00    -0.273 OA
BRANCH   3   6
ATOM      6  CA  VAL A   6      38.026  12.142  -0.549  0.00  0.00    +0.149 C 
BRANCH   6   7
ATOM      7  C   VAL A   6      38.251  10.624  -0.548  0.00  0.00    +0.241 C 
ATOM      8  N   MET A   7      38.483  10.067   0.636  0.00  0.00    -0.297 N 
ATOM      9  H   MET A   7      38.478  10.668   1.484  0.00  0.00    +0.150 HD
ATOM     10  O   VAL A   6      38.146   9.969  -1.589  0.00  0.00    -0.273 OA
BRANCH   8  11
ATOM     11  CA  MET A   7      38.745   8.639   0.785  0.00  0.00    +0.149 C 
BRANCH  11  12
ATOM     12  C   MET A   7      37.570   7.915   1.468  0.00  0.00    +0.241 C 
ATOM     13  O   MET A   7      37.756   7.280   2.503  0.00  0.00    -0.273 OA
ATOM     14  N   ARG A   8      36.374   7.985   0.896  0.00  0.00    -0.297 N 
ATOM     15  H   ARG A   8      36.258   8.505   0.003  0.00  0.00    +0.150 HD
BRANCH  14  16
ATOM     16  CA  ARG A   8      35.216   7.334   1.516  0.00  0.00    +0.149 C 
BRANCH  16  17
ATOM     17  C   ARG A   8      35.161   5.841   1.214  0.00  0.00    +0.241 C 
ATOM     18  N   SER A   9      34.337   5.139   1.977  0.00  0.00    -0.296 N 
ATOM     19  H   SER A   9      33.782   5.634   2.705  0.00  0.00    +0.150 HD
ATOM     20  O   ARG A   8      35.817   5.347   0.292  0.00  0.00    -0.273 OA
BRANCH  18  21
ATOM     21  CA  SER A   9      34.182   3.707   1.833  0.00  0.00    +0.166 C 
BRANCH  21  22
ATOM     22  CB  SER A   9      32.850   3.274   2.417  0.00  0.00    +0.229 C 
ATOM     23  OG  SER A   9      32.329   3.915   3.321  0.00  0.00    -0.286 OA
ENDBRANCH  21  22
BRANCH  21  24
ATOM     24  C   SER A   9      35.308   3.009   2.594  0.00  0.00    +0.165 C 
BRANCH  24  25
ATOM     25  O   SER A   9      35.328   3.401   3.964  0.00  0.00    -0.380 OA
ATOM     26  H   SER A   9      35.466   4.379   4.024  0.00  0.00    +0.211 HD
ENDBRANCH  24  25
ENDBRANCH  21  24
ENDBRANCH  18  21
ENDBRANCH  16  17
BRANCH  16  27
ATOM     27  CB  ARG A   8      33.902   8.023   1.108  0.00  0.00    +0.033 C 
BRANCH  27  28
ATOM     28  CG  ARG A   8      33.388   7.627  -0.255  0.00  0.00    +0.045 C 
BRANCH  28  29
ATOM     29  CD  ARG A   8      32.359   8.600  -0.797  0.00  0.00    +0.174 C 
BRANCH  29  30
ATOM     30  NE  ARG A   8      32.971   9.762  -1.436  0.00  0.00    -0.265 N 
ATOM     31  HE  ARG A   8      33.699  10.282  -0.906  0.00  0.00    +0.259 HD
ATOM     32  CZ  ARG A   8      32.656  10.199  -2.655  0.00  0.00    +0.342 C 
ATOM     33  NH2 ARG A   8      33.254  11.280  -3.143  0.00  0.00    -0.292 N 
ATOM     34 HH21 ARG A   8      33.965  11.782  -2.574  0.00  0.00    +0.255 HD
ATOM     35 HH22 ARG A   8      33.011  11.624  -4.094  0.00  0.00    +0.255 HD
ATOM     36  NH1 ARG A   8      31.732   9.569  -3.379  0.00  0.00    -0.292 N 
ATOM     37 HH11 ARG A   8      31.252   8.731  -2.994  0.00  0.00    +0.255 HD
ATOM     38 HH12 ARG A   8      31.491   9.915  -4.330  0.00  0.00    +0.255 HD
ENDBRANCH  29  30
ENDBRANCH  28  29
ENDBRANCH  27  28
ENDBRANCH  16  27
ENDBRANCH  14  16
ENDBRANCH  11  12
BRANCH  11  39
ATOM     39  CB  MET A   7      40.028   8.482   1.620  0.00  0.00    +0.041 C 
BRANCH  39  40
ATOM     40  CG  MET A   7      40.807   7.175   1.461  0.00  0.00    +0.060 C 
BRANCH  40  41
ATOM     41  SD  MET A   7      41.601   6.986  -0.129  0.00  0.00    -0.139 S 
ATOM     42  CE  MET A   7      40.521   5.817  -0.815  0.00  0.00    +0.069 C 
ENDBRANCH  40  41
ENDBRANCH  39  40
ENDBRANCH  11  39
ENDBRANCH   8  11
ENDBRANCH   6   7
BRANCH   6  43
ATOM     43  CB  VAL A   6      39.374  12.859  -0.229  0.00  0.00    +0.027 C 
ATOM     44  CG2 VAL A   6      39.223  14.347  -0.388  0.00  0.00    +0.002 C 
ATOM     45  CG1 VAL A   6      40.492  12.362  -1.133  0.00  0.00    +0.002 C 
ENDBRANCH   6  43
ENDBRANCH   3   6
ENDBRANCH   1   2
BRANCH   1  47
ATOM     46  C   ARG A   4      33.039  13.129   0.104  0.00  0.00    +0.241 C 
ATOM     47  N   LYS A   5      33.491  12.413   1.137  0.00  0.00    -0.297 N 
ATOM     48  H   LYS A   5      32.832  11.789   1.645  0.00  0.00    +0.150 HD
ATOM     49  O   ARG A   4      33.740  13.929  -0.519  0.00  0.00    -0.273 OA
BRANCH  46  50
ATOM     50  CA  ARG A   4      31.563  12.944  -0.256  0.00  0.00    +0.149 C 
BRANCH  50  52
ATOM     51  C   SER A   3      30.086  11.372   0.877  0.00  0.00    +0.243 C 
ATOM     52  N   ARG A   4      30.879  12.429   0.917  0.00  0.00    -0.297 N 
ATOM     53  H   ARG A   4      31.019  12.912   1.827  0.00  0.00    +0.150 HD
ATOM     54  O   SER A   3      29.812  10.772  -0.164  0.00  0.00    -0.273 OA
BRANCH  51  55
ATOM     55  CA  SER A   3      29.489  10.955   2.217  0.00  0.00    +0.178 C 
BRANCH  55  58
ATOM     56  C   GLU A   2      27.225  10.434   2.806  0.00  0.00    +0.241 C 
ATOM     57  O   GLU A   2      27.304  11.082   3.843  0.00  0.00    -0.273 OA
ATOM     58  N   SER A   3      28.232  10.311   1.965  0.00  0.00    -0.295 N 
ATOM     59  H   SER A   3      28.114   9.738   1.105  0.00  0.00    +0.150 HD
BRANCH  56  60
ATOM     60  CA  GLU A   2      25.942   9.717   2.420  0.00  0.00    +0.149 C 
BRANCH  60  63
ATOM     61  C   GLN A   1      25.787   8.457   4.459  0.00  0.00    +0.238 C 
ATOM     62  O   GLN A   1      26.824   7.826   4.190  0.00  0.00    -0.274 OA
ATOM     63  N   GLU A   2      25.271   9.358   3.648  0.00  0.00    -0.297 N 
ATOM     64  H   GLU A   2      24.370   9.816   3.895  0.00  0.00    +0.150 HD
BRANCH  61  65
ATOM     65  CA  GLN A   1      24.988   8.195   5.718  0.00  0.00    +0.145 C 
BRANCH  65  66
ATOM     66  N   GLN A   1      24.898   6.759   5.956  0.00  0.00    -0.238 NA
ATOM     67  H   GLN A   1      25.757   6.177   5.891  0.00  0.00    +0.142 HD
ENDBRANCH  65  66
BRANCH  65  68
ATOM     68  CB  GLN A   1      25.652   8.907   6.891  0.00  0.00    +0.036 C 
BRANCH  68  69
ATOM     69  CG  GLN A   1      26.978   8.281   7.253  0.00  0.00    +0.087 C 
BRANCH  69  70
ATOM     70  CD  GLN A   1      27.638   8.945   8.429  0.00  0.00    +0.219 C 
ATOM     71  OE1 GLN A   1      27.141   9.943   8.959  0.00  0.00    -0.275 OA
ATOM     72  NE2 GLN A   1      28.754   8.371   8.874  0.00  0.00    -0.329 N 
ATOM     73 HE21 GLN A   1      29.246   8.763   9.702  0.00  0.00    +0.145 HD
ATOM     74 HE22 GLN A   1      29.134   7.531   8.393  0.00  0.00    +0.145 HD
ENDBRANCH  69  70
ENDBRANCH  68  69
ENDBRANCH  65  68
ENDBRANCH  61  65
ENDBRANCH  60  63
BRANCH  60  75
ATOM     75  CB  GLU A   2      25.068  10.651   1.604  0.00  0.00    +0.041 C 
BRANCH  75  76
ATOM     76  CG  GLU A   2      25.722  11.139   0.348  0.00  0.00    +0.116 C 
BRANCH  76  77
ATOM     77  CD  GLU A   2      24.887  12.172  -0.373  0.00  0.00    +0.365 C 
ATOM     78  OE2 GLU A   2      23.725  12.395   0.024  0.00  0.00    -0.246 OA
ATOM     79  OE1 GLU A   2      25.398  12.779  -1.337  0.00  0.00    -0.246 OA
ENDBRANCH  76  77
ENDBRANCH  75  76
ENDBRANCH  60  75
ENDBRANCH  56  60
ENDBRANCH  55  58
BRANCH  55  80
ATOM     80  CB  SER A   3      30.415   9.981   2.940  0.00  0.00    +0.166 C 
BRANCH  80  81
ATOM     81  OG  SER A   3      31.705  10.538   3.125  0.00  0.00    -0.380 OA
ATOM     82  H   SER A   3      32.281   9.884   3.595  0.00  0.00    +0.211 HD
ENDBRANCH  80  81
ENDBRANCH  55  80
ENDBRANCH  51  55
ENDBRANCH  50  52
BRANCH  50  83
ATOM     83  CB  ARG A   4      30.951  14.274  -0.695  0.00  0.00    +0.033 C 
BRANCH  83  84
ATOM     84  CG  ARG A   4      29.632  14.125  -1.369  0.00  0.00    +0.045 C 
BRANCH  84  85
ATOM     85  CD  ARG A   4      29.837  13.421  -2.695  0.00  0.00    +0.174 C 
BRANCH  85  86
ATOM     86  NE  ARG A   4      28.575  13.074  -3.342  0.00  0.00    -0.265 N 
ATOM     87  CZ  ARG A   4      27.902  11.944  -3.132  0.00  0.00    +0.342 C 
ATOM     88  NH2 ARG A   4      28.361  11.029  -2.282  0.00  0.00    -0.292 N 
ATOM     89 HH21 ARG A   4      29.254  11.193  -1.774  0.00  0.00    +0.255 HD
ATOM     90 HH22 ARG A   4      27.827  10.150  -2.126  0.00  0.00    +0.255 HD
ATOM     91  NH1 ARG A   4      26.768  11.726  -3.792  0.00  0.00    -0.292 N 
ATOM     92 HH11 ARG A   4      26.236  10.847  -3.635  0.00  0.00    +0.255 HD
ATOM     93 HH12 ARG A   4      26.414  12.435  -4.465  0.00  0.00    +0.255 HD
ATOM     94  HE  ARG A   4      28.173  13.758  -4.015  0.00  0.00    +0.259 HD
ENDBRANCH  85  86
ENDBRANCH  84  85
ENDBRANCH  83  84
ENDBRANCH  50  83
ENDBRANCH  46  50
ENDBRANCH   1  47
BRANCH   1  95
ATOM     95  CB  LYS A   5      35.104  11.700   2.877  0.00  0.00    +0.029 C 
BRANCH  95  96
ATOM     96  CG  LYS A   5      34.687  12.462   4.103  0.00  0.00    +0.000 C 
BRANCH  96  97
ATOM     97  CD  LYS A   5      35.026  11.710   5.361  0.00  0.00    -0.024 C 
BRANCH  97  98
ATOM     98  CE  LYS A   5      34.638  12.503   6.593  0.00  0.00    -0.086 C 
BRANCH  98  99
ATOM     99  NZ  LYS A   5      33.172  12.462   6.855  0.00  0.00    +0.380 N 
ATOM    100  HZ1 LYS A   5      32.958  13.019   7.707  0.00  0.00    -0.089 HD
ATOM    101  HZ2 LYS A   5      32.874  11.476   7.000  0.00  0.00    -0.089 HD
ATOM    102  HZ3 LYS A   5      32.664  12.863   6.041  0.00  0.00    -0.089 HD
ENDBRANCH  98  99
ENDBRANCH  97  98
ENDBRANCH  96  97
ENDBRANCH  95  96
ENDBRANCH   1  95
TORSDOF 45
REMARK  Name = ../refined-set-2016/1mai/1mai_pocket.pdb
REMARK  131 active torsions:
REMARK  status: ('A' for Active; 'I' for Inactive)
REMARK    1  A    between atoms: _1  and  _3
REMARK    2  A    between atoms: _3  and  _4
REMARK    3  A    between atoms: _3  and  _6
REMARK    4  A    between atoms: _6  and  _7
REMARK    5  A    between atoms: _7  and  _8
REMARK    6  A    between atoms: _8  and  _9
REMARK    7  A    between atoms: _9  and  _10
REMARK    8  A    between atoms: _14  and  _16
REMARK    9  A    between atoms: _16  and  _17
REMARK   10  A    between atoms: _16  and  _19
REMARK   11  A    between atoms: _22  and  _24
REMARK   12  A    between atoms: _24  and  _25
REMARK   13  A    between atoms: _24  and  _27
REMARK   14  A    between atoms: _27  and  _28
REMARK   15  A    between atoms: _28  and  _29
REMARK   16  A    between atoms: _29  and  _30
REMARK   17  A    between atoms: _30  and  _31
REMARK   18  A    between atoms: _35  and  _37
REMARK   19  A    between atoms: _37  and  _38
REMARK   20  A    between atoms: _37  and  _40
REMARK   21  A    between atoms: _40  and  _41
REMARK   22  A    between atoms: _43  and  _45
REMARK   23  A    between atoms: _45  and  _46
REMARK   24  A    between atoms: _45  and  _48
REMARK   25  A    between atoms: _48  and  _49
REMARK   26  A    between atoms: _51  and  _53
REMARK   27  A    between atoms: _53  and  _54
REMARK   28  A    between atoms: _53  and  _56
REMARK   29  A    between atoms: _56  and  _57
REMARK   30  A    between atoms: _67  and  _69
REMARK   31  A    between atoms: _69  and  _70
REMARK   32  A    between atoms: _69  and  _72
REMARK   33  A    between atoms: _72  and  _73
REMARK   34  A    between atoms: _73  and  _74
REMARK   35  A    between atoms: _74  and  _75
REMARK   36  A    between atoms: _84  and  _86
REMARK   37  A    between atoms: _86  and  _87
REMARK   38  A    between atoms: _86  and  _89
REMARK   39  A    between atoms: _89  and  _90
REMARK   40  A    between atoms: _90  and  _91
REMARK   41  A    between atoms: _94  and  _96
REMARK   42  A    between atoms: _96  and  _97
REMARK   43  A    between atoms: _96  and  _99
REMARK   44  A    between atoms: _99  and  _100
REMARK   45  A    between atoms: _100  and  _101
REMARK   46  A    between atoms: _101  and  _102
REMARK   47  A    between atoms: _111  and  _113
REMARK   48  A    between atoms: _113  and  _114
REMARK   49  A    between atoms: _113  and  _116
REMARK   50  A    between atoms: _116  and  _117
REMARK   51  A    between atoms: _122  and  _123
REMARK   52  A    between atoms: _125  and  _127
REMARK   53  A    between atoms: _127  and  _128
REMARK   54  A    between atoms: _127  and  _130
REMARK   55  A    between atoms: _130  and  _131
REMARK   56  A    between atoms: _131  and  _132
REMARK   57  A    between atoms: _137  and  _139
REMARK   58  A    between atoms: _139  and  _140
REMARK   59  A    between atoms: _139  and  _142
REMARK   60  A    between atoms: _142  and  _143
REMARK   61  A    between atoms: _143  and  _144
REMARK   62  A    between atoms: _147  and  _149
REMARK   63  A    between atoms: _149  and  _150
REMARK   64  A    between atoms: _149  and  _152
REMARK   65  A    between atoms: _152  and  _153
REMARK   66  A    between atoms: _155  and  _157
REMARK   67  A    between atoms: _157  and  _158
REMARK   68  A    between atoms: _157  and  _160
REMARK   69  A    between atoms: _160  and  _161
REMARK   70  A    between atoms: _161  and  _162
REMARK   71  A    between atoms: _162  and  _163
REMARK   72  A    between atoms: _172  and  _174
REMARK   73  A    between atoms: _174  and  _175
REMARK   74  A    between atoms: _174  and  _177
REMARK   75  A    between atoms: _177  and  _178
REMARK   76  A    between atoms: _178  and  _179
REMARK   77  A    between atoms: _179  and  _180
REMARK   78  A    between atoms: _180  and  _181
REMARK   79  A    between atoms: _185  and  _187
REMARK   80  A    between atoms: _187  and  _188
REMARK   81  A    between atoms: _187  and  _190
REMARK   82  A    between atoms: _193  and  _195
REMARK   83  A    between atoms: _195  and  _196
REMARK   84  A    between atoms: _195  and  _198
REMARK   85  A    between atoms: _198  and  _199
REMARK   86  A    between atoms: _199  and  _200
REMARK   87  A    between atoms: _202  and  _204
REMARK   88  A    between atoms: _204  and  _205
REMARK   89  A    between atoms: _204  and  _207
REMARK   90  A    between atoms: _207  and  _208
REMARK   91  A    between atoms: _208  and  _209
REMARK   92  A    between atoms: _209  and  _210
REMARK   93  A    between atoms: _219  and  _221
REMARK   94  A    between atoms: _221  and  _222
REMARK   95  A    between atoms: _221  and  _224
REMARK   96  A    between atoms: _224  and  _225
REMARK   97  A    between atoms: _227  and  _229
REMARK   98  A    between atoms: _229  and  _230
REMARK   99  A    between atoms: _229  and  _232
REMARK  100  A    between atoms: _232  and  _233
REMARK  101  A    between atoms: _235  and  _237
REMARK  102  A    between atoms: _237  and  _238
REMARK  103  A    between atoms: _237  and  _240
REMARK  104  A    between atoms: _240  and  _241
REMARK  105  A    between atoms: _241  and  _242
REMARK  106  A    between atoms: _247  and  _249
REMARK  107  A    between atoms: _249  and  _250
REMARK  108  A    between atoms: _249  and  _252
REMARK  109  A    between atoms: _252  and  _253
REMARK  110  A    between atoms: _259  and  _261
REMARK  111  A    between atoms: _261  and  _262
REMARK  112  A    between atoms: _261  and  _264
REMARK  113  A    between atoms: _264  and  _265
REMARK  114  A    between atoms: _265  and  _266
REMARK  115  A    between atoms: _266  and  _267
REMARK  116  A    between atoms: _276  and  _278
REMARK  117  A    between atoms: _278  and  _279
REMARK  118  A    between atoms: _278  and  _281
REMARK  119  A    between atoms: _281  and  _282
REMARK  120  A    between atoms: _287  and  _289
REMARK  121  A    between atoms: _289  and  _290
REMARK  122  A    between atoms: _289  and  _292
REMARK  123  A    between atoms: _292  and  _293
REMARK  124  A    between atoms: _296  and  _298
REMARK  125  A    between atoms: _298  and  _299
REMARK  126  A    between atoms: _298  and  _301
REMARK  127  A    between atoms: _301  and  _302
REMARK  128  A    between atoms: _305  and  _307
REMARK  129  A    between atoms: _307  and  _308
REMARK  130  A    between atoms: _307  and  _310
REMARK  131  A    between atoms: _310  and  _311
REMARK                            x       y       z     vdW  Elec       q    Type
REMARK                         _______ _______ _______ _____ _____    ______ ____
ROOT
ATOM      1  C   SER A   1      31.345   5.216   6.602  0.00  0.00    +0.241 C 
ATOM      2  O   SER A   1      31.023   6.063   7.434  0.00  0.00    -0.274 OA
ATOM      3  N   GLN A   2      30.494   4.759   5.692  0.00  0.00    -0.298 N 
ATOM      4  H   GLN A   2      30.781   3.986   5.059  0.00  0.00    +0.150 HD
ENDROOT
BRANCH   1   5
ATOM      5  CA  SER A   1      32.729   4.559   6.638  0.00  0.00    +0.174 C 
BRANCH   5   6
ATOM      6  N   SER A   1      32.664   3.238   6.024  0.00  0.00    -0.236 NA
ATOM      7  H   SER A   1      33.125   3.049   5.111  0.00  0.00    +0.142 HD
ENDBRANCH   5   6
BRANCH   5   8
ATOM      8  CB  SER A   1      33.792   5.460   5.981  0.00  0.00    +0.163 C 
BRANCH   8   9
ATOM      9  OG  SER A   1      33.527   5.728   4.615  0.00  0.00    -0.380 OA
ATOM     10  H   SER A   1      33.503   4.876   4.111  0.00  0.00    +0.211 HD
ENDBRANCH   8   9
ENDBRANCH   5   8
ENDBRANCH   1   5
BRANCH   3  11
ATOM     11  CA  GLN A   2      29.166   5.330   5.574  0.00  0.00    +0.137 C 
BRANCH  11  12
ATOM     12  C   GLN A   2      28.061   4.709   6.444  0.00  0.00    +0.227 C 
ATOM     13  O   GLN A   2      26.873   4.978   6.263  0.00  0.00    -0.286 OA
ENDBRANCH  11  12
BRANCH  11  14
ATOM     14  CB  GLN A   2      28.780   5.421   4.103  0.00  0.00    +0.037 C 
BRANCH  14  15
ATOM     15  CG  GLN A   2      29.741   6.306   3.324  0.00  0.00    +0.087 C 
BRANCH  15  16
ATOM     16  CD  GLN A   2      29.326   6.495   1.897  0.00  0.00    +0.219 C 
ATOM     17  NE2 GLN A   2      28.305   7.302   1.689  0.00  0.00    -0.329 N 
ATOM     18 HE21 GLN A   2      27.836   7.766   2.493  0.00  0.00    +0.145 HD
ATOM     19 HE22 GLN A   2      27.968   7.475   0.720  0.00  0.00    +0.145 HD
ATOM     20  OE1 GLN A   2      29.920   5.918   0.978  0.00  0.00    -0.275 OA
ENDBRANCH  15  16
ENDBRANCH  14  15
ENDBRANCH  11  14
ENDBRANCH   3  11
TORSDOF 9
REMARK  Name = ../refined-set-2016/1mai/1mai_pocket.pdb
REMARK  131 active torsions:
REMARK  status: ('A' for Active; 'I' for Inactive)
REMARK    1  A    between atoms: _1  and  _3
REMARK    2  A    between atoms: _3  and  _4
REMARK    3  A    between atoms: _3  and  _6
REMARK    4  A    between atoms: _6  and  _7
REMARK    5  A    between atoms: _7  and  _8
REMARK    6  A    between atoms: _8  and  _9
REMARK    7  A    between atoms: _9  and  _10
REMARK    8  A    between atoms: _14  and  _16
REMARK    9  A    between atoms: _16  and  _17
REMARK   10  A    between atoms: _16  and  _19
REMARK   11  A    between atoms: _22  and  _24
REMARK   12  A    between atoms: _24  and  _25
REMARK   13  A    between atoms: _24  and  _27
REMARK   14  A    between atoms: _27  and  _28
REMARK   15  A    between atoms: _28  and  _29
REMARK   16  A    between atoms: _29  and  _30
REMARK   17  A    between atoms: _30  and  _31
REMARK   18  A    between atoms: _35  and  _37
REMARK   19  A    between atoms: _37  and  _38
REMARK   20  A    between atoms: _37  and  _40
REMARK   21  A    between atoms: _40  and  _41
REMARK   22  A    between atoms: _43  and  _45
REMARK   23  A    between atoms: _45  and  _46
REMARK   24  A    between atoms: _45  and  _48
REMARK   25  A    between atoms: _48  and  _49
REMARK   26  A    between atoms: _51  and  _53
REMARK   27  A    between atoms: _53  and  _54
REMARK   28  A    between atoms: _53  and  _56
REMARK   29  A    between atoms: _56  and  _57
REMARK   30  A    between atoms: _67  and  _69
REMARK   31  A    between atoms: _69  and  _70
REMARK   32  A    between atoms: _69  and  _72
REMARK   33  A    between atoms: _72  and  _73
REMARK   34  A    between atoms: _73  and  _74
REMARK   35  A    between atoms: _74  and  _75
REMARK   36  A    between atoms: _84  and  _86
REMARK   37  A    between atoms: _86  and  _87
REMARK   38  A    between atoms: _86  and  _89
REMARK   39  A    between atoms: _89  and  _90
REMARK   40  A    between atoms: _90  and  _91
REMARK   41  A    between atoms: _94  and  _96
REMARK   42  A    between atoms: _96  and  _97
REMARK   43  A    between atoms: _96  and  _99
REMARK   44  A    between atoms: _99  and  _100
REMARK   45  A    between atoms: _100  and  _101
REMARK   46  A    between atoms: _101  and  _102
REMARK   47  A    between atoms: _111  and  _113
REMARK   48  A    between atoms: _113  and  _114
REMARK   49  A    between atoms: _113  and  _116
REMARK   50  A    between atoms: _116  and  _117
REMARK   51  A    between atoms: _122  and  _123
REMARK   52  A    between atoms: _125  and  _127
REMARK   53  A    between atoms: _127  and  _128
REMARK   54  A    between atoms: _127  and  _130
REMARK   55  A    between atoms: _130  and  _131
REMARK   56  A    between atoms: _131  and  _132
REMARK   57  A    between atoms: _137  and  _139
REMARK   58  A    between atoms: _139  and  _140
REMARK   59  A    between atoms: _139  and  _142
REMARK   60  A    between atoms: _142  and  _143
REMARK   61  A    between atoms: _143  and  _144
REMARK   62  A    between atoms: _147  and  _149
REMARK   63  A    between atoms: _149  and  _150
REMARK   64  A    between atoms: _149  and  _152
REMARK   65  A    between atoms: _152  and  _153
REMARK   66  A    between atoms: _155  and  _157
REMARK   67  A    between atoms: _157  and  _158
REMARK   68  A    between atoms: _157  and  _160
REMARK   69  A    between atoms: _160  and  _161
REMARK   70  A    between atoms: _161  and  _162
REMARK   71  A    between atoms: _162  and  _163
REMARK   72  A    between atoms: _172  and  _174
REMARK   73  A    between atoms: _174  and  _175
REMARK   74  A    between atoms: _174  and  _177
REMARK   75  A    between atoms: _177  and  _178
REMARK   76  A    between atoms: _178  and  _179
REMARK   77  A    between atoms: _179  and  _180
REMARK   78  A    between atoms: _180  and  _181
REMARK   79  A    between atoms: _185  and  _187
REMARK   80  A    between atoms: _187  and  _188
REMARK   81  A    between atoms: _187  and  _190
REMARK   82  A    between atoms: _193  and  _195
REMARK   83  A    between atoms: _195  and  _196
REMARK   84  A    between atoms: _195  and  _198
REMARK   85  A    between atoms: _198  and  _199
REMARK   86  A    between atoms: _199  and  _200
REMARK   87  A    between atoms: _202  and  _204
REMARK   88  A    between atoms: _204  and  _205
REMARK   89  A    between atoms: _204  and  _207
REMARK   90  A    between atoms: _207  and  _208
REMARK   91  A    between atoms: _208  and  _209
REMARK   92  A    between atoms: _209  and  _210
REMARK   93  A    between atoms: _219  and  _221
REMARK   94  A    between atoms: _221  and  _222
REMARK   95  A    between atoms: _221  and  _224
REMARK   96  A    between atoms: _224  and  _225
REMARK   97  A    between atoms: _227  and  _229
REMARK   98  A    between atoms: _229  and  _230
REMARK   99  A    between atoms: _229  and  _232
REMARK  100  A    between atoms: _232  and  _233
REMARK  101  A    between atoms: _235  and  _237
REMARK  102  A    between atoms: _237  and  _238
REMARK  103  A    between atoms: _237  and  _240
REMARK  104  A    between atoms: _240  and  _241
REMARK  105  A    between atoms: _241  and  _242
REMARK  106  A    between atoms: _247  and  _249
REMARK  107  A    between atoms: _249  and  _250
REMARK  108  A    between atoms: _249  and  _252
REMARK  109  A    between atoms: _252  and  _253
REMARK  110  A    between atoms: _259  and  _261
REMARK  111  A    between atoms: _261  and  _262
REMARK  112  A    between atoms: _261  and  _264
REMARK  113  A    between atoms: _264  and  _265
REMARK  114  A    between atoms: _265  and  _266
REMARK  115  A    between atoms: _266  and  _267
REMARK  116  A    between atoms: _276  and  _278
REMARK  117  A    between atoms: _278  and  _279
REMARK  118  A    between atoms: _278  and  _281
REMARK  119  A    between atoms: _281  and  _282
REMARK  120  A    between atoms: _287  and  _289
REMARK  121  A    between atoms: _289  and  _290
REMARK  122  A    between atoms: _289  and  _292
REMARK  123  A    between atoms: _292  and  _293
REMARK  124  A    between atoms: _296  and  _298
REMARK  125  A    between atoms: _298  and  _299
REMARK  126  A    between atoms: _298  and  _301
REMARK  127  A    between atoms: _301  and  _302
REMARK  128  A    between atoms: _305  and  _307
REMARK  129  A    between atoms: _307  and  _308
REMARK  130  A    between atoms: _307  and  _310
REMARK  131  A    between atoms: _310  and  _311
REMARK                            x       y       z     vdW  Elec       q    Type
REMARK                         _______ _______ _______ _____ _____    ______ ____
ROOT
ATOM      1  CB  PHE A   1      29.226  10.237  18.538  0.00  0.00    +0.051 C 
ENDROOT
BRANCH   1   2
ATOM      2  CG  PHE A   1      28.414  10.279  17.276  0.00  0.00    -0.020 A 
ATOM      3  CD2 PHE A   1      27.607   9.208  16.918  0.00  0.00    -0.004 A 
ATOM      4  CE2 PHE A   1      26.804   9.264  15.767  0.00  0.00    -0.000 A 
ATOM      5  CZ  PHE A   1      26.813  10.399  14.972  0.00  0.00    -0.000 A 
ATOM      6  CE1 PHE A   1      27.615  11.471  15.322  0.00  0.00    -0.000 A 
ATOM      7  CD1 PHE A   1      28.414  11.404  16.474  0.00  0.00    -0.004 A 
ENDBRANCH   1   2
BRANCH   1   8
ATOM      8  CA  PHE A   1      28.401  10.499  19.801  0.00  0.00    +0.137 C 
BRANCH   8   9
ATOM      9  N   PHE A   1      27.779  11.817  19.705  0.00  0.00    -0.239 NA
ATOM     10  H   PHE A   1      28.367  12.627  19.424  0.00  0.00    +0.142 HD
ENDBRANCH   8   9
BRANCH   8  11
ATOM     11  C   PHE A   1      29.249  10.216  21.069  0.00  0.00    +0.224 C 
ATOM     12  O   PHE A   1      29.693  11.129  21.769  0.00  0.00    -0.287 OA
ENDBRANCH   8  11
ENDBRANCH   1   8
TORSDOF 4
REMARK  Name = ../refined-set-2016/1mai/1mai_pocket.pdb
REMARK  131 active torsions:
REMARK  status: ('A' for Active; 'I' for Inactive)
REMARK    1  A    between atoms: _1  and  _3
REMARK    2  A    between atoms: _3  and  _4
REMARK    3  A    between atoms: _3  and  _6
REMARK    4  A    between atoms: _6  and  _7
REMARK    5  A    between atoms: _7  and  _8
REMARK    6  A    between atoms: _8  and  _9
REMARK    7  A    between atoms: _9  and  _10
REMARK    8  A    between atoms: _14  and  _16
REMARK    9  A    between atoms: _16  and  _17
REMARK   10  A    between atoms: _16  and  _19
REMARK   11  A    between atoms: _22  and  _24
REMARK   12  A    between atoms: _24  and  _25
REMARK   13  A    between atoms: _24  and  _27
REMARK   14  A    between atoms: _27  and  _28
REMARK   15  A    between atoms: _28  and  _29
REMARK   16  A    between atoms: _29  and  _30
REMARK   17  A    between atoms: _30  and  _31
REMARK   18  A    between atoms: _35  and  _37
REMARK   19  A    between atoms: _37  and  _38
REMARK   20  A    between atoms: _37  and  _40
REMARK   21  A    between atoms: _40  and  _41
REMARK   22  A    between atoms: _43  and  _45
REMARK   23  A    between atoms: _45  and  _46
REMARK   24  A    between atoms: _45  and  _48
REMARK   25  A    between atoms: _48  and  _49
REMARK   26  A    between atoms: _51  and  _53
REMARK   27  A    between atoms: _53  and  _54
REMARK   28  A    between atoms: _53  and  _56
REMARK   29  A    between atoms: _56  and  _57
REMARK   30  A    between atoms: _67  and  _69
REMARK   31  A    between atoms: _69  and  _70
REMARK   32  A    between atoms: _69  and  _72
REMARK   33  A    between atoms: _72  and  _73
REMARK   34  A    between atoms: _73  and  _74
REMARK   35  A    between atoms: _74  and  _75
REMARK   36  A    between atoms: _84  and  _86
REMARK   37  A    between atoms: _86  and  _87
REMARK   38  A    between atoms: _86  and  _89
REMARK   39  A    between atoms: _89  and  _90
REMARK   40  A    between atoms: _90  and  _91
REMARK   41  A    between atoms: _94  and  _96
REMARK   42  A    between atoms: _96  and  _97
REMARK   43  A    between atoms: _96  and  _99
REMARK   44  A    between atoms: _99  and  _100
REMARK   45  A    between atoms: _100  and  _101
REMARK   46  A    between atoms: _101  and  _102
REMARK   47  A    between atoms: _111  and  _113
REMARK   48  A    between atoms: _113  and  _114
REMARK   49  A    between atoms: _113  and  _116
REMARK   50  A    between atoms: _116  and  _117
REMARK   51  A    between atoms: _122  and  _123
REMARK   52  A    between atoms: _125  and  _127
REMARK   53  A    between atoms: _127  and  _128
REMARK   54  A    between atoms: _127  and  _130
REMARK   55  A    between atoms: _130  and  _131
REMARK   56  A    between atoms: _131  and  _132
REMARK   57  A    between atoms: _137  and  _139
REMARK   58  A    between atoms: _139  and  _140
REMARK   59  A    between atoms: _139  and  _142
REMARK   60  A    between atoms: _142  and  _143
REMARK   61  A    between atoms: _143  and  _144
REMARK   62  A    between atoms: _147  and  _149
REMARK   63  A    between atoms: _149  and  _150
REMARK   64  A    between atoms: _149  and  _152
REMARK   65  A    between atoms: _152  and  _153
REMARK   66  A    between atoms: _155  and  _157
REMARK   67  A    between atoms: _157  and  _158
REMARK   68  A    between atoms: _157  and  _160
REMARK   69  A    between atoms: _160  and  _161
REMARK   70  A    between atoms: _161  and  _162
REMARK   71  A    between atoms: _162  and  _163
REMARK   72  A    between atoms: _172  and  _174
REMARK   73  A    between atoms: _174  and  _175
REMARK   74  A    between atoms: _174  and  _177
REMARK   75  A    between atoms: _177  and  _178
REMARK   76  A    between atoms: _178  and  _179
REMARK   77  A    between atoms: _179  and  _180
REMARK   78  A    between atoms: _180  and  _181
REMARK   79  A    between atoms: _185  and  _187
REMARK   80  A    between atoms: _187  and  _188
REMARK   81  A    between atoms: _187  and  _190
REMARK   82  A    between atoms: _193  and  _195
REMARK   83  A    between atoms: _195  and  _196
REMARK   84  A    between atoms: _195  and  _198
REMARK   85  A    between atoms: _198  and  _199
REMARK   86  A    between atoms: _199  and  _200
REMARK   87  A    between atoms: _202  and  _204
REMARK   88  A    between atoms: _204  and  _205
REMARK   89  A    between atoms: _204  and  _207
REMARK   90  A    between atoms: _207  and  _208
REMARK   91  A    between atoms: _208  and  _209
REMARK   92  A    between atoms: _209  and  _210
REMARK   93  A    between atoms: _219  and  _221
REMARK   94  A    between atoms: _221  and  _222
REMARK   95  A    between atoms: _221  and  _224
REMARK   96  A    between atoms: _224  and  _225
REMARK   97  A    between atoms: _227  and  _229
REMARK   98  A    between atoms: _229  and  _230
REMARK   99  A    between atoms: _229  and  _232
REMARK  100  A    between atoms: _232  and  _233
REMARK  101  A    between atoms: _235  and  _237
REMARK  102  A    between atoms: _237  and  _238
REMARK  103  A    between atoms: _237  and  _240
REMARK  104  A    between atoms: _240  and  _241
REMARK  105  A    between atoms: _241  and  _242
REMARK  106  A    between atoms: _247  and  _249
REMARK  107  A    between atoms: _249  and  _250
REMARK  108  A    between atoms: _249  and  _252
REMARK  109  A    between atoms: _252  and  _253
REMARK  110  A    between atoms: _259  and  _261
REMARK  111  A    between atoms: _261  and  _262
REMARK  112  A    between atoms: _261  and  _264
REMARK  113  A    between atoms: _264  and  _265
REMARK  114  A    between atoms: _265  and  _266
REMARK  115  A    between atoms: _266  and  _267
REMARK  116  A    between atoms: _276  and  _278
REMARK  117  A    between atoms: _278  and  _279
REMARK  118  A    between atoms: _278  and  _281
REMARK  119  A    between atoms: _281  and  _282
REMARK  120  A    between atoms: _287  and  _289
REMARK  121  A    between atoms: _289  and  _290
REMARK  122  A    between atoms: _289  and  _292
REMARK  123  A    between atoms: _292  and  _293
REMARK  124  A    between atoms: _296  and  _298
REMARK  125  A    between atoms: _298  and  _299
REMARK  126  A    between atoms: _298  and  _301
REMARK  127  A    between atoms: _301  and  _302
REMARK  128  A    between atoms: _305  and  _307
REMARK  129  A    between atoms: _307  and  _308
REMARK  130  A    between atoms: _307  and  _310
REMARK  131  A    between atoms: _310  and  _311
REMARK                            x       y       z     vdW  Elec       q    Type
REMARK                         _______ _______ _______ _____ _____    ______ ____
ROOT
ATOM      1  C   ASN A   2      30.465  14.674  15.605  0.00  0.00    +0.241 C 
ATOM      2  N   THR A   3      29.882  15.518  16.438  0.00  0.00    -0.295 N 
ATOM      3  H   THR A   3      30.487  16.081  17.069  0.00  0.00    +0.150 HD
ATOM      4  O   ASN A   2      29.860  13.992  14.781  0.00  0.00    -0.273 OA
ENDROOT
BRANCH   2   5
ATOM      5  CA  THR A   3      28.447  15.704  16.523  0.00  0.00    +0.176 C 
BRANCH   5   6
ATOM      6  C   THR A   3      27.900  16.165  15.160  0.00  0.00    +0.243 C 
ATOM      7  N   LEU A   4      26.795  15.546  14.747  0.00  0.00    -0.297 N 
ATOM      8  H   LEU A   4      26.398  14.790  15.341  0.00  0.00    +0.150 HD
ATOM      9  O   THR A   3      28.547  16.952  14.453  0.00  0.00    -0.273 OA
BRANCH   7  10
ATOM     10  CA  LEU A   4      26.120  15.880  13.504  0.00  0.00    +0.149 C 
BRANCH  10  11
ATOM     11  C   LEU A   4      25.049  16.921  13.793  0.00  0.00    +0.241 C 
ATOM     12  O   LEU A   4      24.141  16.660  14.580  0.00  0.00    -0.273 OA
ATOM     13  N   ASP A   5      25.162  18.091  13.172  0.00  0.00    -0.298 N 
ATOM     14  H   ASP A   5      25.973  18.241  12.539  0.00  0.00    +0.150 HD
BRANCH  13  15
ATOM     15  CA  ASP A   5      24.196  19.178  13.339  0.00  0.00    +0.148 C 
BRANCH  15  16
ATOM     16  C   ASP A   5      23.379  19.107  12.080  0.00  0.00    +0.227 C 
ATOM     17  O   ASP A   5      23.911  19.254  10.989  0.00  0.00    -0.286 OA
ENDBRANCH  15  16
BRANCH  15  18
ATOM     18  CB  ASP A   5      24.917  20.514  13.468  0.00  0.00    +0.142 C 
BRANCH  18  19
ATOM     19  CG  ASP A   5      25.656  20.646  14.792  0.00  0.00    +0.367 C 
ATOM     20  OD2 ASP A   5      25.095  20.213  15.820  0.00  0.00    -0.246 OA
ATOM     21  OD1 ASP A   5      26.790  21.181  14.813  0.00  0.00    -0.246 OA
ENDBRANCH  18  19
ENDBRANCH  15  18
ENDBRANCH  13  15
ENDBRANCH  10  11
BRANCH  10  22
ATOM     22  CB  LEU A   4      25.426  14.654  12.937  0.00  0.00    +0.029 C 
BRANCH  22  23
ATOM     23  CG  LEU A   4      26.292  13.645  12.220  0.00  0.00    +0.002 C 
ATOM     24  CD2 LEU A   4      25.423  12.509  11.698  0.00  0.00    +0.000 C 
ATOM     25  CD1 LEU A   4      27.019  14.367  11.108  0.00  0.00    +0.000 C 
ENDBRANCH  22  23
ENDBRANCH  10  22
ENDBRANCH   7  10
ENDBRANCH   5   6
BRANCH   5  26
ATOM     26  CB  THR A   3      28.135  16.735  17.640  0.00  0.00    +0.137 C 
ATOM     27  CG2 THR A   3      26.639  17.043  17.731  0.00  0.00    +0.034 C 
BRANCH  26  28
ATOM     28  OG1 THR A   3      28.568  16.195  18.894  0.00  0.00    -0.382 OA
ATOM     29  HG1 THR A   3      28.374  16.844  19.616  0.00  0.00    +0.210 HD
ENDBRANCH  26  28
ENDBRANCH   5  26
ENDBRANCH   2   5
BRANCH   1  30
ATOM     30  CA  ASN A   2      31.970  14.669  15.651  0.00  0.00    +0.158 C 
BRANCH  30  33
ATOM     31  C   ARG A   1      32.349  12.384  16.394  0.00  0.00    +0.238 C 
ATOM     32  O   ARG A   1      31.829  12.608  17.496  0.00  0.00    -0.274 OA
ATOM     33  N   ASN A   2      32.510  13.327  15.469  0.00  0.00    -0.297 N 
ATOM     34  H   ASN A   2      33.032  13.102  14.598  0.00  0.00    +0.150 HD
BRANCH  31  35
ATOM     35  CA  ARG A   1      32.960  11.014  16.064  0.00  0.00    +0.145 C 
BRANCH  35  36
ATOM     36  N   ARG A   1      33.838  10.564  17.142  0.00  0.00    -0.238 NA
ATOM     37  H   ARG A   1      33.661   9.634  17.574  0.00  0.00    +0.142 HD
ENDBRANCH  35  36
BRANCH  35  38
ATOM     38  CB  ARG A   1      31.883   9.945  15.808  0.00  0.00    +0.030 C 
BRANCH  38  39
ATOM     39  CG  ARG A   1      30.972  10.161  14.606  0.00  0.00    +0.045 C 
BRANCH  39  40
ATOM     40  CD  ARG A   1      30.064   8.939  14.379  0.00  0.00    +0.174 C 
BRANCH  40  41
ATOM     41  NE  ARG A   1      30.521   8.064  13.293  0.00  0.00    -0.265 N 
ATOM     42  CZ  ARG A   1      30.823   6.772  13.424  0.00  0.00    +0.342 C 
ATOM     43  NH2 ARG A   1      30.727   6.174  14.606  0.00  0.00    -0.292 N 
ATOM     44 HH21 ARG A   1      30.414   6.714  15.438  0.00  0.00    +0.255 HD
ATOM     45 HH22 ARG A   1      30.964   5.166  14.700  0.00  0.00    +0.255 HD
ATOM     46  NH1 ARG A   1      31.207   6.069  12.357  0.00  0.00    -0.292 N 
ATOM     47 HH11 ARG A   1      31.443   5.061  12.456  0.00  0.00    +0.255 HD
ATOM     48 HH12 ARG A   1      31.270   6.529  11.426  0.00  0.00    +0.255 HD
ATOM     49  HE  ARG A   1      30.617   8.485  12.347  0.00  0.00    +0.259 HD
ENDBRANCH  40  41
ENDBRANCH  39  40
ENDBRANCH  38  39
ENDBRANCH  35  38
ENDBRANCH  31  35
ENDBRANCH  30  33
BRANCH  30  50
ATOM     50  CB  ASN A   2      32.425  15.603  14.547  0.00  0.00    +0.114 C 
BRANCH  50  51
ATOM     51  CG  ASN A   2      33.799  16.130  14.771  0.00  0.00    +0.222 C 
ATOM     52  ND2 ASN A   2      33.960  16.953  15.798  0.00  0.00    -0.329 N 
ATOM     53 HD21 ASN A   2      33.149  17.195  16.403  0.00  0.00    +0.145 HD
ATOM     54 HD22 ASN A   2      34.897  17.357  15.999  0.00  0.00    +0.145 HD
ATOM     55  OD1 ASN A   2      34.719  15.809  14.023  0.00  0.00    -0.275 OA
ENDBRANCH  50  51
ENDBRANCH  30  50
ENDBRANCH   1  30
TORSDOF 22
REMARK  Name = ../refined-set-2016/1mai/1mai_pocket.pdb
REMARK  131 active torsions:
REMARK  status: ('A' for Active; 'I' for Inactive)
REMARK    1  A    between atoms: _1  and  _3
REMARK    2  A    between atoms: _3  and  _4
REMARK    3  A    between atoms: _3  and  _6
REMARK    4  A    between atoms: _6  and  _7
REMARK    5  A    between atoms: _7  and  _8
REMARK    6  A    between atoms: _8  and  _9
REMARK    7  A    between atoms: _9  and  _10
REMARK    8  A    between atoms: _14  and  _16
REMARK    9  A    between atoms: _16  and  _17
REMARK   10  A    between atoms: _16  and  _19
REMARK   11  A    between atoms: _22  and  _24
REMARK   12  A    between atoms: _24  and  _25
REMARK   13  A    between atoms: _24  and  _27
REMARK   14  A    between atoms: _27  and  _28
REMARK   15  A    between atoms: _28  and  _29
REMARK   16  A    between atoms: _29  and  _30
REMARK   17  A    between atoms: _30  and  _31
REMARK   18  A    between atoms: _35  and  _37
REMARK   19  A    between atoms: _37  and  _38
REMARK   20  A    between atoms: _37  and  _40
REMARK   21  A    between atoms: _40  and  _41
REMARK   22  A    between atoms: _43  and  _45
REMARK   23  A    between atoms: _45  and  _46
REMARK   24  A    between atoms: _45  and  _48
REMARK   25  A    between atoms: _48  and  _49
REMARK   26  A    between atoms: _51  and  _53
REMARK   27  A    between atoms: _53  and  _54
REMARK   28  A    between atoms: _53  and  _56
REMARK   29  A    between atoms: _56  and  _57
REMARK   30  A    between atoms: _67  and  _69
REMARK   31  A    between atoms: _69  and  _70
REMARK   32  A    between atoms: _69  and  _72
REMARK   33  A    between atoms: _72  and  _73
REMARK   34  A    between atoms: _73  and  _74
REMARK   35  A    between atoms: _74  and  _75
REMARK   36  A    between atoms: _84  and  _86
REMARK   37  A    between atoms: _86  and  _87
REMARK   38  A    between atoms: _86  and  _89
REMARK   39  A    between atoms: _89  and  _90
REMARK   40  A    between atoms: _90  and  _91
REMARK   41  A    between atoms: _94  and  _96
REMARK   42  A    between atoms: _96  and  _97
REMARK   43  A    between atoms: _96  and  _99
REMARK   44  A    between atoms: _99  and  _100
REMARK   45  A    between atoms: _100  and  _101
REMARK   46  A    between atoms: _101  and  _102
REMARK   47  A    between atoms: _111  and  _113
REMARK   48  A    between atoms: _113  and  _114
REMARK   49  A    between atoms: _113  and  _116
REMARK   50  A    between atoms: _116  and  _117
REMARK   51  A    between atoms: _122  and  _123
REMARK   52  A    between atoms: _125  and  _127
REMARK   53  A    between atoms: _127  and  _128
REMARK   54  A    between atoms: _127  and  _130
REMARK   55  A    between atoms: _130  and  _131
REMARK   56  A    between atoms: _131  and  _132
REMARK   57  A    between atoms: _137  and  _139
REMARK   58  A    between atoms: _139  and  _140
REMARK   59  A    between atoms: _139  and  _142
REMARK   60  A    between atoms: _142  and  _143
REMARK   61  A    between atoms: _143  and  _144
REMARK   62  A    between atoms: _147  and  _149
REMARK   63  A    between atoms: _149  and  _150
REMARK   64  A    between atoms: _149  and  _152
REMARK   65  A    between atoms: _152  and  _153
REMARK   66  A    between atoms: _155  and  _157
REMARK   67  A    between atoms: _157  and  _158
REMARK   68  A    between atoms: _157  and  _160
REMARK   69  A    between atoms: _160  and  _161
REMARK   70  A    between atoms: _161  and  _162
REMARK   71  A    between atoms: _162  and  _163
REMARK   72  A    between atoms: _172  and  _174
REMARK   73  A    between atoms: _174  and  _175
REMARK   74  A    between atoms: _174  and  _177
REMARK   75  A    between atoms: _177  and  _178
REMARK   76  A    between atoms: _178  and  _179
REMARK   77  A    between atoms: _179  and  _180
REMARK   78  A    between atoms: _180  and  _181
REMARK   79  A    between atoms: _185  and  _187
REMARK   80  A    between atoms: _187  and  _188
REMARK   81  A    between atoms: _187  and  _190
REMARK   82  A    between atoms: _193  and  _195
REMARK   83  A    between atoms: _195  and  _196
REMARK   84  A    between atoms: _195  and  _198
REMARK   85  A    between atoms: _198  and  _199
REMARK   86  A    between atoms: _199  and  _200
REMARK   87  A    between atoms: _202  and  _204
REMARK   88  A    between atoms: _204  and  _205
REMARK   89  A    between atoms: _204  and  _207
REMARK   90  A    between atoms: _207  and  _208
REMARK   91  A    between atoms: _208  and  _209
REMARK   92  A    between atoms: _209  and  _210
REMARK   93  A    between atoms: _219  and  _221
REMARK   94  A    between atoms: _221  and  _222
REMARK   95  A    between atoms: _221  and  _224
REMARK   96  A    between atoms: _224  and  _225
REMARK   97  A    between atoms: _227  and  _229
REMARK   98  A    between atoms: _229  and  _230
REMARK   99  A    between atoms: _229  and  _232
REMARK  100  A    between atoms: _232  and  _233
REMARK  101  A    between atoms: _235  and  _237
REMARK  102  A    between atoms: _237  and  _238
REMARK  103  A    between atoms: _237  and  _240
REMARK  104  A    between atoms: _240  and  _241
REMARK  105  A    between atoms: _241  and  _242
REMARK  106  A    between atoms: _247  and  _249
REMARK  107  A    between atoms: _249  and  _250
REMARK  108  A    between atoms: _249  and  _252
REMARK  109  A    between atoms: _252  and  _253
REMARK  110  A    between atoms: _259  and  _261
REMARK  111  A    between atoms: _261  and  _262
REMARK  112  A    between atoms: _261  and  _264
REMARK  113  A    between atoms: _264  and  _265
REMARK  114  A    between atoms: _265  and  _266
REMARK  115  A    between atoms: _266  and  _267
REMARK  116  A    between atoms: _276  and  _278
REMARK  117  A    between atoms: _278  and  _279
REMARK  118  A    between atoms: _278  and  _281
REMARK  119  A    between atoms: _281  and  _282
REMARK  120  A    between atoms: _287  and  _289
REMARK  121  A    between atoms: _289  and  _290
REMARK  122  A    between atoms: _289  and  _292
REMARK  123  A    between atoms: _292  and  _293
REMARK  124  A    between atoms: _296  and  _298
REMARK  125  A    between atoms: _298  and  _299
REMARK  126  A    between atoms: _298  and  _301
REMARK  127  A    between atoms: _301  and  _302
REMARK  128  A    between atoms: _305  and  _307
REMARK  129  A    between atoms: _307  and  _308
REMARK  130  A    between atoms: _307  and  _310
REMARK  131  A    between atoms: _310  and  _311
REMARK                            x       y       z     vdW  Elec       q    Type
REMARK                         _______ _______ _______ _____ _____    ______ ____
ROOT
ATOM      1  O   HOH     1      29.636  16.859  11.641  0.00  0.00    +0.000 OA
ENDROOT
TORSDOF 0
REMARK  Name = ../refined-set-2016/1mai/1mai_pocket.pdb
REMARK  131 active torsions:
REMARK  status: ('A' for Active; 'I' for Inactive)
REMARK    1  A    between atoms: _1  and  _3
REMARK    2  A    between atoms: _3  and  _4
REMARK    3  A    between atoms: _3  and  _6
REMARK    4  A    between atoms: _6  and  _7
REMARK    5  A    between atoms: _7  and  _8
REMARK    6  A    between atoms: _8  and  _9
REMARK    7  A    between atoms: _9  and  _10
REMARK    8  A    between atoms: _14  and  _16
REMARK    9  A    between atoms: _16  and  _17
REMARK   10  A    between atoms: _16  and  _19
REMARK   11  A    between atoms: _22  and  _24
REMARK   12  A    between atoms: _24  and  _25
REMARK   13  A    between atoms: _24  and  _27
REMARK   14  A    between atoms: _27  and  _28
REMARK   15  A    between atoms: _28  and  _29
REMARK   16  A    between atoms: _29  and  _30
REMARK   17  A    between atoms: _30  and  _31
REMARK   18  A    between atoms: _35  and  _37
REMARK   19  A    between atoms: _37  and  _38
REMARK   20  A    between atoms: _37  and  _40
REMARK   21  A    between atoms: _40  and  _41
REMARK   22  A    between atoms: _43  and  _45
REMARK   23  A    between atoms: _45  and  _46
REMARK   24  A    between atoms: _45  and  _48
REMARK   25  A    between atoms: _48  and  _49
REMARK   26  A    between atoms: _51  and  _53
REMARK   27  A    between atoms: _53  and  _54
REMARK   28  A    between atoms: _53  and  _56
REMARK   29  A    between atoms: _56  and  _57
REMARK   30  A    between atoms: _67  and  _69
REMARK   31  A    between atoms: _69  and  _70
REMARK   32  A    between atoms: _69  and  _72
REMARK   33  A    between atoms: _72  and  _73
REMARK   34  A    between atoms: _73  and  _74
REMARK   35  A    between atoms: _74  and  _75
REMARK   36  A    between atoms: _84  and  _86
REMARK   37  A    between atoms: _86  and  _87
REMARK   38  A    between atoms: _86  and  _89
REMARK   39  A    between atoms: _89  and  _90
REMARK   40  A    between atoms: _90  and  _91
REMARK   41  A    between atoms: _94  and  _96
REMARK   42  A    between atoms: _96  and  _97
REMARK   43  A    between atoms: _96  and  _99
REMARK   44  A    between atoms: _99  and  _100
REMARK   45  A    between atoms: _100  and  _101
REMARK   46  A    between atoms: _101  and  _102
REMARK   47  A    between atoms: _111  and  _113
REMARK   48  A    between atoms: _113  and  _114
REMARK   49  A    between atoms: _113  and  _116
REMARK   50  A    between atoms: _116  and  _117
REMARK   51  A    between atoms: _122  and  _123
REMARK   52  A    between atoms: _125  and  _127
REMARK   53  A    between atoms: _127  and  _128
REMARK   54  A    between atoms: _127  and  _130
REMARK   55  A    between atoms: _130  and  _131
REMARK   56  A    between atoms: _131  and  _132
REMARK   57  A    between atoms: _137  and  _139
REMARK   58  A    between atoms: _139  and  _140
REMARK   59  A    between atoms: _139  and  _142
REMARK   60  A    between atoms: _142  and  _143
REMARK   61  A    between atoms: _143  and  _144
REMARK   62  A    between atoms: _147  and  _149
REMARK   63  A    between atoms: _149  and  _150
REMARK   64  A    between atoms: _149  and  _152
REMARK   65  A    between atoms: _152  and  _153
REMARK   66  A    between atoms: _155  and  _157
REMARK   67  A    between atoms: _157  and  _158
REMARK   68  A    between atoms: _157  and  _160
REMARK   69  A    between atoms: _160  and  _161
REMARK   70  A    between atoms: _161  and  _162
REMARK   71  A    between atoms: _162  and  _163
REMARK   72  A    between atoms: _172  and  _174
REMARK   73  A    between atoms: _174  and  _175
REMARK   74  A    between atoms: _174  and  _177
REMARK   75  A    between atoms: _177  and  _178
REMARK   76  A    between atoms: _178  and  _179
REMARK   77  A    between atoms: _179  and  _180
REMARK   78  A    between atoms: _180  and  _181
REMARK   79  A    between atoms: _185  and  _187
REMARK   80  A    between atoms: _187  and  _188
REMARK   81  A    between atoms: _187  and  _190
REMARK   82  A    between atoms: _193  and  _195
REMARK   83  A    between atoms: _195  and  _196
REMARK   84  A    between atoms: _195  and  _198
REMARK   85  A    between atoms: _198  and  _199
REMARK   86  A    between atoms: _199  and  _200
REMARK   87  A    between atoms: _202  and  _204
REMARK   88  A    between atoms: _204  and  _205
REMARK   89  A    between atoms: _204  and  _207
REMARK   90  A    between atoms: _207  and  _208
REMARK   91  A    between atoms: _208  and  _209
REMARK   92  A    between atoms: _209  and  _210
REMARK   93  A    between atoms: _219  and  _221
REMARK   94  A    between atoms: _221  and  _222
REMARK   95  A    between atoms: _221  and  _224
REMARK   96  A    between atoms: _224  and  _225
REMARK   97  A    between atoms: _227  and  _229
REMARK   98  A    between atoms: _229  and  _230
REMARK   99  A    between atoms: _229  and  _232
REMARK  100  A    between atoms: _232  and  _233
REMARK  101  A    between atoms: _235  and  _237
REMARK  102  A    between atoms: _237  and  _238
REMARK  103  A    between atoms: _237  and  _240
REMARK  104  A    between atoms: _240  and  _241
REMARK  105  A    between atoms: _241  and  _242
REMARK  106  A    between atoms: _247  and  _249
REMARK  107  A    between atoms: _249  and  _250
REMARK  108  A    between atoms: _249  and  _252
REMARK  109  A    between atoms: _252  and  _253
REMARK  110  A    between atoms: _259  and  _261
REMARK  111  A    between atoms: _261  and  _262
REMARK  112  A    between atoms: _261  and  _264
REMARK  113  A    between atoms: _264  and  _265
REMARK  114  A    between atoms: _265  and  _266
REMARK  115  A    between atoms: _266  and  _267
REMARK  116  A    between atoms: _276  and  _278
REMARK  117  A    between atoms: _278  and  _279
REMARK  118  A    between atoms: _278  and  _281
REMARK  119  A    between atoms: _281  and  _282
REMARK  120  A    between atoms: _287  and  _289
REMARK  121  A    between atoms: _289  and  _290
REMARK  122  A    between atoms: _289  and  _292
REMARK  123  A    between atoms: _292  and  _293
REMARK  124  A    between atoms: _296  and  _298
REMARK  125  A    between atoms: _298  and  _299
REMARK  126  A    between atoms: _298  and  _301
REMARK  127  A    between atoms: _301  and  _302
REMARK  128  A    between atoms: _305  and  _307
REMARK  129  A    between atoms: _307  and  _308
REMARK  130  A    between atoms: _307  and  _310
REMARK  131  A    between atoms: _310  and  _311
REMARK                            x       y       z     vdW  Elec       q    Type
REMARK                         _______ _______ _______ _____ _____    ______ ____
ROOT
ATOM      1  O   HOH     1      29.055  11.302   6.034  0.00  0.00    +0.000 OA
ENDROOT
TORSDOF 0
REMARK  Name = ../refined-set-2016/1mai/1mai_pocket.pdb
REMARK  131 active torsions:
REMARK  status: ('A' for Active; 'I' for Inactive)
REMARK    1  A    between atoms: _1  and  _3
REMARK    2  A    between atoms: _3  and  _4
REMARK    3  A    between atoms: _3  and  _6
REMARK    4  A    between atoms: _6  and  _7
REMARK    5  A    between atoms: _7  and  _8
REMARK    6  A    between atoms: _8  and  _9
REMARK    7  A    between atoms: _9  and  _10
REMARK    8  A    between atoms: _14  and  _16
REMARK    9  A    between atoms: _16  and  _17
REMARK   10  A    between atoms: _16  and  _19
REMARK   11  A    between atoms: _22  and  _24
REMARK   12  A    between atoms: _24  and  _25
REMARK   13  A    between atoms: _24  and  _27
REMARK   14  A    between atoms: _27  and  _28
REMARK   15  A    between atoms: _28  and  _29
REMARK   16  A    between atoms: _29  and  _30
REMARK   17  A    between atoms: _30  and  _31
REMARK   18  A    between atoms: _35  and  _37
REMARK   19  A    between atoms: _37  and  _38
REMARK   20  A    between atoms: _37  and  _40
REMARK   21  A    between atoms: _40  and  _41
REMARK   22  A    between atoms: _43  and  _45
REMARK   23  A    between atoms: _45  and  _46
REMARK   24  A    between atoms: _45  and  _48
REMARK   25  A    between atoms: _48  and  _49
REMARK   26  A    between atoms: _51  and  _53
REMARK   27  A    between atoms: _53  and  _54
REMARK   28  A    between atoms: _53  and  _56
REMARK   29  A    between atoms: _56  and  _57
REMARK   30  A    between atoms: _67  and  _69
REMARK   31  A    between atoms: _69  and  _70
REMARK   32  A    between atoms: _69  and  _72
REMARK   33  A    between atoms: _72  and  _73
REMARK   34  A    between atoms: _73  and  _74
REMARK   35  A    between atoms: _74  and  _75
REMARK   36  A    between atoms: _84  and  _86
REMARK   37  A    between atoms: _86  and  _87
REMARK   38  A    between atoms: _86  and  _89
REMARK   39  A    between atoms: _89  and  _90
REMARK   40  A    between atoms: _90  and  _91
REMARK   41  A    between atoms: _94  and  _96
REMARK   42  A    between atoms: _96  and  _97
REMARK   43  A    between atoms: _96  and  _99
REMARK   44  A    between atoms: _99  and  _100
REMARK   45  A    between atoms: _100  and  _101
REMARK   46  A    between atoms: _101  and  _102
REMARK   47  A    between atoms: _111  and  _113
REMARK   48  A    between atoms: _113  and  _114
REMARK   49  A    between atoms: _113  and  _116
REMARK   50  A    between atoms: _116  and  _117
REMARK   51  A    between atoms: _122  and  _123
REMARK   52  A    between atoms: _125  and  _127
REMARK   53  A    between atoms: _127  and  _128
REMARK   54  A    between atoms: _127  and  _130
REMARK   55  A    between atoms: _130  and  _131
REMARK   56  A    between atoms: _131  and  _132
REMARK   57  A    between atoms: _137  and  _139
REMARK   58  A    between atoms: _139  and  _140
REMARK   59  A    between atoms: _139  and  _142
REMARK   60  A    between atoms: _142  and  _143
REMARK   61  A    between atoms: _143  and  _144
REMARK   62  A    between atoms: _147  and  _149
REMARK   63  A    between atoms: _149  and  _150
REMARK   64  A    between atoms: _149  and  _152
REMARK   65  A    between atoms: _152  and  _153
REMARK   66  A    between atoms: _155  and  _157
REMARK   67  A    between atoms: _157  and  _158
REMARK   68  A    between atoms: _157  and  _160
REMARK   69  A    between atoms: _160  and  _161
REMARK   70  A    between atoms: _161  and  _162
REMARK   71  A    between atoms: _162  and  _163
REMARK   72  A    between atoms: _172  and  _174
REMARK   73  A    between atoms: _174  and  _175
REMARK   74  A    between atoms: _174  and  _177
REMARK   75  A    between atoms: _177  and  _178
REMARK   76  A    between atoms: _178  and  _179
REMARK   77  A    between atoms: _179  and  _180
REMARK   78  A    between atoms: _180  and  _181
REMARK   79  A    between atoms: _185  and  _187
REMARK   80  A    between atoms: _187  and  _188
REMARK   81  A    between atoms: _187  and  _190
REMARK   82  A    between atoms: _193  and  _195
REMARK   83  A    between atoms: _195  and  _196
REMARK   84  A    between atoms: _195  and  _198
REMARK   85  A    between atoms: _198  and  _199
REMARK   86  A    between atoms: _199  and  _200
REMARK   87  A    between atoms: _202  and  _204
REMARK   88  A    between atoms: _204  and  _205
REMARK   89  A    between atoms: _204  and  _207
REMARK   90  A    between atoms: _207  and  _208
REMARK   91  A    between atoms: _208  and  _209
REMARK   92  A    between atoms: _209  and  _210
REMARK   93  A    between atoms: _219  and  _221
REMARK   94  A    between atoms: _221  and  _222
REMARK   95  A    between atoms: _221  and  _224
REMARK   96  A    between atoms: _224  and  _225
REMARK   97  A    between atoms: _227  and  _229
REMARK   98  A    between atoms: _229  and  _230
REMARK   99  A    between atoms: _229  and  _232
REMARK  100  A    between atoms: _232  and  _233
REMARK  101  A    between atoms: _235  and  _237
REMARK  102  A    between atoms: _237  and  _238
REMARK  103  A    between atoms: _237  and  _240
REMARK  104  A    between atoms: _240  and  _241
REMARK  105  A    between atoms: _241  and  _242
REMARK  106  A    between atoms: _247  and  _249
REMARK  107  A    between atoms: _249  and  _250
REMARK  108  A    between atoms: _249  and  _252
REMARK  109  A    between atoms: _252  and  _253
REMARK  110  A    between atoms: _259  and  _261
REMARK  111  A    between atoms: _261  and  _262
REMARK  112  A    between atoms: _261  and  _264
REMARK  113  A    between atoms: _264  and  _265
REMARK  114  A    between atoms: _265  and  _266
REMARK  115  A    between atoms: _266  and  _267
REMARK  116  A    between atoms: _276  and  _278
REMARK  117  A    between atoms: _278  and  _279
REMARK  118  A    between atoms: _278  and  _281
REMARK  119  A    between atoms: _281  and  _282
REMARK  120  A    between atoms: _287  and  _289
REMARK  121  A    between atoms: _289  and  _290
REMARK  122  A    between atoms: _289  and  _292
REMARK  123  A    between atoms: _292  and  _293
REMARK  124  A    between atoms: _296  and  _298
REMARK  125  A    between atoms: _298  and  _299
REMARK  126  A    between atoms: _298  and  _301
REMARK  127  A    between atoms: _301  and  _302
REMARK  128  A    between atoms: _305  and  _307
REMARK  129  A    between atoms: _307  and  _308
REMARK  130  A    between atoms: _307  and  _310
REMARK  131  A    between atoms: _310  and  _311
REMARK                            x       y       z     vdW  Elec       q    Type
REMARK                         _______ _______ _______ _____ _____    ______ ____
ROOT
ATOM      1  O   HOH     1      27.385  18.587  11.375  0.00  0.00    +0.000 OA
ENDROOT
TORSDOF 0
REMARK  Name = ../refined-set-2016/1mai/1mai_pocket.pdb
REMARK  131 active torsions:
REMARK  status: ('A' for Active; 'I' for Inactive)
REMARK    1  A    between atoms: _1  and  _3
REMARK    2  A    between atoms: _3  and  _4
REMARK    3  A    between atoms: _3  and  _6
REMARK    4  A    between atoms: _6  and  _7
REMARK    5  A    between atoms: _7  and  _8
REMARK    6  A    between atoms: _8  and  _9
REMARK    7  A    between atoms: _9  and  _10
REMARK    8  A    between atoms: _14  and  _16
REMARK    9  A    between atoms: _16  and  _17
REMARK   10  A    between atoms: _16  and  _19
REMARK   11  A    between atoms: _22  and  _24
REMARK   12  A    between atoms: _24  and  _25
REMARK   13  A    between atoms: _24  and  _27
REMARK   14  A    between atoms: _27  and  _28
REMARK   15  A    between atoms: _28  and  _29
REMARK   16  A    between atoms: _29  and  _30
REMARK   17  A    between atoms: _30  and  _31
REMARK   18  A    between atoms: _35  and  _37
REMARK   19  A    between atoms: _37  and  _38
REMARK   20  A    between atoms: _37  and  _40
REMARK   21  A    between atoms: _40  and  _41
REMARK   22  A    between atoms: _43  and  _45
REMARK   23  A    between atoms: _45  and  _46
REMARK   24  A    between atoms: _45  and  _48
REMARK   25  A    between atoms: _48  and  _49
REMARK   26  A    between atoms: _51  and  _53
REMARK   27  A    between atoms: _53  and  _54
REMARK   28  A    between atoms: _53  and  _56
REMARK   29  A    between atoms: _56  and  _57
REMARK   30  A    between atoms: _67  and  _69
REMARK   31  A    between atoms: _69  and  _70
REMARK   32  A    between atoms: _69  and  _72
REMARK   33  A    between atoms: _72  and  _73
REMARK   34  A    between atoms: _73  and  _74
REMARK   35  A    between atoms: _74  and  _75
REMARK   36  A    between atoms: _84  and  _86
REMARK   37  A    between atoms: _86  and  _87
REMARK   38  A    between atoms: _86  and  _89
REMARK   39  A    between atoms: _89  and  _90
REMARK   40  A    between atoms: _90  and  _91
REMARK   41  A    between atoms: _94  and  _96
REMARK   42  A    between atoms: _96  and  _97
REMARK   43  A    between atoms: _96  and  _99
REMARK   44  A    between atoms: _99  and  _100
REMARK   45  A    between atoms: _100  and  _101
REMARK   46  A    between atoms: _101  and  _102
REMARK   47  A    between atoms: _111  and  _113
REMARK   48  A    between atoms: _113  and  _114
REMARK   49  A    between atoms: _113  and  _116
REMARK   50  A    between atoms: _116  and  _117
REMARK   51  A    between atoms: _122  and  _123
REMARK   52  A    between atoms: _125  and  _127
REMARK   53  A    between atoms: _127  and  _128
REMARK   54  A    between atoms: _127  and  _130
REMARK   55  A    between atoms: _130  and  _131
REMARK   56  A    between atoms: _131  and  _132
REMARK   57  A    between atoms: _137  and  _139
REMARK   58  A    between atoms: _139  and  _140
REMARK   59  A    between atoms: _139  and  _142
REMARK   60  A    between atoms: _142  and  _143
REMARK   61  A    between atoms: _143  and  _144
REMARK   62  A    between atoms: _147  and  _149
REMARK   63  A    between atoms: _149  and  _150
REMARK   64  A    between atoms: _149  and  _152
REMARK   65  A    between atoms: _152  and  _153
REMARK   66  A    between atoms: _155  and  _157
REMARK   67  A    between atoms: _157  and  _158
REMARK   68  A    between atoms: _157  and  _160
REMARK   69  A    between atoms: _160  and  _161
REMARK   70  A    between atoms: _161  and  _162
REMARK   71  A    between atoms: _162  and  _163
REMARK   72  A    between atoms: _172  and  _174
REMARK   73  A    between atoms: _174  and  _175
REMARK   74  A    between atoms: _174  and  _177
REMARK   75  A    between atoms: _177  and  _178
REMARK   76  A    between atoms: _178  and  _179
REMARK   77  A    between atoms: _179  and  _180
REMARK   78  A    between atoms: _180  and  _181
REMARK   79  A    between atoms: _185  and  _187
REMARK   80  A    between atoms: _187  and  _188
REMARK   81  A    between atoms: _187  and  _190
REMARK   82  A    between atoms: _193  and  _195
REMARK   83  A    between atoms: _195  and  _196
REMARK   84  A    between atoms: _195  and  _198
REMARK   85  A    between atoms: _198  and  _199
REMARK   86  A    between atoms: _199  and  _200
REMARK   87  A    between atoms: _202  and  _204
REMARK   88  A    between atoms: _204  and  _205
REMARK   89  A    between atoms: _204  and  _207
REMARK   90  A    between atoms: _207  and  _208
REMARK   91  A    between atoms: _208  and  _209
REMARK   92  A    between atoms: _209  and  _210
REMARK   93  A    between atoms: _219  and  _221
REMARK   94  A    between atoms: _221  and  _222
REMARK   95  A    between atoms: _221  and  _224
REMARK   96  A    between atoms: _224  and  _225
REMARK   97  A    between atoms: _227  and  _229
REMARK   98  A    between atoms: _229  and  _230
REMARK   99  A    between atoms: _229  and  _232
REMARK  100  A    between atoms: _232  and  _233
REMARK  101  A    between atoms: _235  and  _237
REMARK  102  A    between atoms: _237  and  _238
REMARK  103  A    between atoms: _237  and  _240
REMARK  104  A    between atoms: _240  and  _241
REMARK  105  A    between atoms: _241  and  _242
REMARK  106  A    between atoms: _247  and  _249
REMARK  107  A    between atoms: _249  and  _250
REMARK  108  A    between atoms: _249  and  _252
REMARK  109  A    between atoms: _252  and  _253
REMARK  110  A    between atoms: _259  and  _261
REMARK  111  A    between atoms: _261  and  _262
REMARK  112  A    between atoms: _261  and  _264
REMARK  113  A    between atoms: _264  and  _265
REMARK  114  A    between atoms: _265  and  _266
REMARK  115  A    between atoms: _266  and  _267
REMARK  116  A    between atoms: _276  and  _278
REMARK  117  A    between atoms: _278  and  _279
REMARK  118  A    between atoms: _278  and  _281
REMARK  119  A    between atoms: _281  and  _282
REMARK  120  A    between atoms: _287  and  _289
REMARK  121  A    between atoms: _289  and  _290
REMARK  122  A    between atoms: _289  and  _292
REMARK  123  A    between atoms: _292  and  _293
REMARK  124  A    between atoms: _296  and  _298
REMARK  125  A    between atoms: _298  and  _299
REMARK  126  A    between atoms: _298  and  _301
REMARK  127  A    between atoms: _301  and  _302
REMARK  128  A    between atoms: _305  and  _307
REMARK  129  A    between atoms: _307  and  _308
REMARK  130  A    between atoms: _307  and  _310
REMARK  131  A    between atoms: _310  and  _311
REMARK                            x       y       z     vdW  Elec       q    Type
REMARK                         _______ _______ _______ _____ _____    ______ ____
ROOT
ATOM      1  O   HOH     1      28.296  21.935  12.937  0.00  0.00    +0.000 OA
ENDROOT
TORSDOF 0
REMARK  Name = ../refined-set-2016/1mai/1mai_pocket.pdb
REMARK  131 active torsions:
REMARK  status: ('A' for Active; 'I' for Inactive)
REMARK    1  A    between atoms: _1  and  _3
REMARK    2  A    between atoms: _3  and  _4
REMARK    3  A    between atoms: _3  and  _6
REMARK    4  A    between atoms: _6  and  _7
REMARK    5  A    between atoms: _7  and  _8
REMARK    6  A    between atoms: _8  and  _9
REMARK    7  A    between atoms: _9  and  _10
REMARK    8  A    between atoms: _14  and  _16
REMARK    9  A    between atoms: _16  and  _17
REMARK   10  A    between atoms: _16  and  _19
REMARK   11  A    between atoms: _22  and  _24
REMARK   12  A    between atoms: _24  and  _25
REMARK   13  A    between atoms: _24  and  _27
REMARK   14  A    between atoms: _27  and  _28
REMARK   15  A    between atoms: _28  and  _29
REMARK   16  A    between atoms: _29  and  _30
REMARK   17  A    between atoms: _30  and  _31
REMARK   18  A    between atoms: _35  and  _37
REMARK   19  A    between atoms: _37  and  _38
REMARK   20  A    between atoms: _37  and  _40
REMARK   21  A    between atoms: _40  and  _41
REMARK   22  A    between atoms: _43  and  _45
REMARK   23  A    between atoms: _45  and  _46
REMARK   24  A    between atoms: _45  and  _48
REMARK   25  A    between atoms: _48  and  _49
REMARK   26  A    between atoms: _51  and  _53
REMARK   27  A    between atoms: _53  and  _54
REMARK   28  A    between atoms: _53  and  _56
REMARK   29  A    between atoms: _56  and  _57
REMARK   30  A    between atoms: _67  and  _69
REMARK   31  A    between atoms: _69  and  _70
REMARK   32  A    between atoms: _69  and  _72
REMARK   33  A    between atoms: _72  and  _73
REMARK   34  A    between atoms: _73  and  _74
REMARK   35  A    between atoms: _74  and  _75
REMARK   36  A    between atoms: _84  and  _86
REMARK   37  A    between atoms: _86  and  _87
REMARK   38  A    between atoms: _86  and  _89
REMARK   39  A    between atoms: _89  and  _90
REMARK   40  A    between atoms: _90  and  _91
REMARK   41  A    between atoms: _94  and  _96
REMARK   42  A    between atoms: _96  and  _97
REMARK   43  A    between atoms: _96  and  _99
REMARK   44  A    between atoms: _99  and  _100
REMARK   45  A    between atoms: _100  and  _101
REMARK   46  A    between atoms: _101  and  _102
REMARK   47  A    between atoms: _111  and  _113
REMARK   48  A    between atoms: _113  and  _114
REMARK   49  A    between atoms: _113  and  _116
REMARK   50  A    between atoms: _116  and  _117
REMARK   51  A    between atoms: _122  and  _123
REMARK   52  A    between atoms: _125  and  _127
REMARK   53  A    between atoms: _127  and  _128
REMARK   54  A    between atoms: _127  and  _130
REMARK   55  A    between atoms: _130  and  _131
REMARK   56  A    between atoms: _131  and  _132
REMARK   57  A    between atoms: _137  and  _139
REMARK   58  A    between atoms: _139  and  _140
REMARK   59  A    between atoms: _139  and  _142
REMARK   60  A    between atoms: _142  and  _143
REMARK   61  A    between atoms: _143  and  _144
REMARK   62  A    between atoms: _147  and  _149
REMARK   63  A    between atoms: _149  and  _150
REMARK   64  A    between atoms: _149  and  _152
REMARK   65  A    between atoms: _152  and  _153
REMARK   66  A    between atoms: _155  and  _157
REMARK   67  A    between atoms: _157  and  _158
REMARK   68  A    between atoms: _157  and  _160
REMARK   69  A    between atoms: _160  and  _161
REMARK   70  A    between atoms: _161  and  _162
REMARK   71  A    between atoms: _162  and  _163
REMARK   72  A    between atoms: _172  and  _174
REMARK   73  A    between atoms: _174  and  _175
REMARK   74  A    between atoms: _174  and  _177
REMARK   75  A    between atoms: _177  and  _178
REMARK   76  A    between atoms: _178  and  _179
REMARK   77  A    between atoms: _179  and  _180
REMARK   78  A    between atoms: _180  and  _181
REMARK   79  A    between atoms: _185  and  _187
REMARK   80  A    between atoms: _187  and  _188
REMARK   81  A    between atoms: _187  and  _190
REMARK   82  A    between atoms: _193  and  _195
REMARK   83  A    between atoms: _195  and  _196
REMARK   84  A    between atoms: _195  and  _198
REMARK   85  A    between atoms: _198  and  _199
REMARK   86  A    between atoms: _199  and  _200
REMARK   87  A    between atoms: _202  and  _204
REMARK   88  A    between atoms: _204  and  _205
REMARK   89  A    between atoms: _204  and  _207
REMARK   90  A    between atoms: _207  and  _208
REMARK   91  A    between atoms: _208  and  _209
REMARK   92  A    between atoms: _209  and  _210
REMARK   93  A    between atoms: _219  and  _221
REMARK   94  A    between atoms: _221  and  _222
REMARK   95  A    between atoms: _221  and  _224
REMARK   96  A    between atoms: _224  and  _225
REMARK   97  A    between atoms: _227  and  _229
REMARK   98  A    between atoms: _229  and  _230
REMARK   99  A    between atoms: _229  and  _232
REMARK  100  A    between atoms: _232  and  _233
REMARK  101  A    between atoms: _235  and  _237
REMARK  102  A    between atoms: _237  and  _238
REMARK  103  A    between atoms: _237  and  _240
REMARK  104  A    between atoms: _240  and  _241
REMARK  105  A    between atoms: _241  and  _242
REMARK  106  A    between atoms: _247  and  _249
REMARK  107  A    between atoms: _249  and  _250
REMARK  108  A    between atoms: _249  and  _252
REMARK  109  A    between atoms: _252  and  _253
REMARK  110  A    between atoms: _259  and  _261
REMARK  111  A    between atoms: _261  and  _262
REMARK  112  A    between atoms: _261  and  _264
REMARK  113  A    between atoms: _264  and  _265
REMARK  114  A    between atoms: _265  and  _266
REMARK  115  A    between atoms: _266  and  _267
REMARK  116  A    between atoms: _276  and  _278
REMARK  117  A    between atoms: _278  and  _279
REMARK  118  A    between atoms: _278  and  _281
REMARK  119  A    between atoms: _281  and  _282
REMARK  120  A    between atoms: _287  and  _289
REMARK  121  A    between atoms: _289  and  _290
REMARK  122  A    between atoms: _289  and  _292
REMARK  123  A    between atoms: _292  and  _293
REMARK  124  A    between atoms: _296  and  _298
REMARK  125  A    between atoms: _298  and  _299
REMARK  126  A    between atoms: _298  and  _301
REMARK  127  A    between atoms: _301  and  _302
REMARK  128  A    between atoms: _305  and  _307
REMARK  129  A    between atoms: _307  and  _308
REMARK  130  A    between atoms: _307  and  _310
REMARK  131  A    between atoms: _310  and  _311
REMARK                            x       y       z     vdW  Elec       q    Type
REMARK                         _______ _______ _______ _____ _____    ______ ____
ROOT
ATOM      1  O   HOH     1      33.135   8.566   4.453  0.00  0.00    +0.000 OA
ENDROOT
TORSDOF 0
REMARK  Name = ../refined-set-2016/1mai/1mai_pocket.pdb
REMARK  131 active torsions:
REMARK  status: ('A' for Active; 'I' for Inactive)
REMARK    1  A    between atoms: _1  and  _3
REMARK    2  A    between atoms: _3  and  _4
REMARK    3  A    between atoms: _3  and  _6
REMARK    4  A    between atoms: _6  and  _7
REMARK    5  A    between atoms: _7  and  _8
REMARK    6  A    between atoms: _8  and  _9
REMARK    7  A    between atoms: _9  and  _10
REMARK    8  A    between atoms: _14  and  _16
REMARK    9  A    between atoms: _16  and  _17
REMARK   10  A    between atoms: _16  and  _19
REMARK   11  A    between atoms: _22  and  _24
REMARK   12  A    between atoms: _24  and  _25
REMARK   13  A    between atoms: _24  and  _27
REMARK   14  A    between atoms: _27  and  _28
REMARK   15  A    between atoms: _28  and  _29
REMARK   16  A    between atoms: _29  and  _30
REMARK   17  A    between atoms: _30  and  _31
REMARK   18  A    between atoms: _35  and  _37
REMARK   19  A    between atoms: _37  and  _38
REMARK   20  A    between atoms: _37  and  _40
REMARK   21  A    between atoms: _40  and  _41
REMARK   22  A    between atoms: _43  and  _45
REMARK   23  A    between atoms: _45  and  _46
REMARK   24  A    between atoms: _45  and  _48
REMARK   25  A    between atoms: _48  and  _49
REMARK   26  A    between atoms: _51  and  _53
REMARK   27  A    between atoms: _53  and  _54
REMARK   28  A    between atoms: _53  and  _56
REMARK   29  A    between atoms: _56  and  _57
REMARK   30  A    between atoms: _67  and  _69
REMARK   31  A    between atoms: _69  and  _70
REMARK   32  A    between atoms: _69  and  _72
REMARK   33  A    between atoms: _72  and  _73
REMARK   34  A    between atoms: _73  and  _74
REMARK   35  A    between atoms: _74  and  _75
REMARK   36  A    between atoms: _84  and  _86
REMARK   37  A    between atoms: _86  and  _87
REMARK   38  A    between atoms: _86  and  _89
REMARK   39  A    between atoms: _89  and  _90
REMARK   40  A    between atoms: _90  and  _91
REMARK   41  A    between atoms: _94  and  _96
REMARK   42  A    between atoms: _96  and  _97
REMARK   43  A    between atoms: _96  and  _99
REMARK   44  A    between atoms: _99  and  _100
REMARK   45  A    between atoms: _100  and  _101
REMARK   46  A    between atoms: _101  and  _102
REMARK   47  A    between atoms: _111  and  _113
REMARK   48  A    between atoms: _113  and  _114
REMARK   49  A    between atoms: _113  and  _116
REMARK   50  A    between atoms: _116  and  _117
REMARK   51  A    between atoms: _122  and  _123
REMARK   52  A    between atoms: _125  and  _127
REMARK   53  A    between atoms: _127  and  _128
REMARK   54  A    between atoms: _127  and  _130
REMARK   55  A    between atoms: _130  and  _131
REMARK   56  A    between atoms: _131  and  _132
REMARK   57  A    between atoms: _137  and  _139
REMARK   58  A    between atoms: _139  and  _140
REMARK   59  A    between atoms: _139  and  _142
REMARK   60  A    between atoms: _142  and  _143
REMARK   61  A    between atoms: _143  and  _144
REMARK   62  A    between atoms: _147  and  _149
REMARK   63  A    between atoms: _149  and  _150
REMARK   64  A    between atoms: _149  and  _152
REMARK   65  A    between atoms: _152  and  _153
REMARK   66  A    between atoms: _155  and  _157
REMARK   67  A    between atoms: _157  and  _158
REMARK   68  A    between atoms: _157  and  _160
REMARK   69  A    between atoms: _160  and  _161
REMARK   70  A    between atoms: _161  and  _162
REMARK   71  A    between atoms: _162  and  _163
REMARK   72  A    between atoms: _172  and  _174
REMARK   73  A    between atoms: _174  and  _175
REMARK   74  A    between atoms: _174  and  _177
REMARK   75  A    between atoms: _177  and  _178
REMARK   76  A    between atoms: _178  and  _179
REMARK   77  A    between atoms: _179  and  _180
REMARK   78  A    between atoms: _180  and  _181
REMARK   79  A    between atoms: _185  and  _187
REMARK   80  A    between atoms: _187  and  _188
REMARK   81  A    between atoms: _187  and  _190
REMARK   82  A    between atoms: _193  and  _195
REMARK   83  A    between atoms: _195  and  _196
REMARK   84  A    between atoms: _195  and  _198
REMARK   85  A    between atoms: _198  and  _199
REMARK   86  A    between atoms: _199  and  _200
REMARK   87  A    between atoms: _202  and  _204
REMARK   88  A    between atoms: _204  and  _205
REMARK   89  A    between atoms: _204  and  _207
REMARK   90  A    between atoms: _207  and  _208
REMARK   91  A    between atoms: _208  and  _209
REMARK   92  A    between atoms: _209  and  _210
REMARK   93  A    between atoms: _219  and  _221
REMARK   94  A    between atoms: _221  and  _222
REMARK   95  A    between atoms: _221  and  _224
REMARK   96  A    between atoms: _224  and  _225
REMARK   97  A    between atoms: _227  and  _229
REMARK   98  A    between atoms: _229  and  _230
REMARK   99  A    between atoms: _229  and  _232
REMARK  100  A    between atoms: _232  and  _233
REMARK  101  A    between atoms: _235  and  _237
REMARK  102  A    between atoms: _237  and  _238
REMARK  103  A    between atoms: _237  and  _240
REMARK  104  A    between atoms: _240  and  _241
REMARK  105  A    between atoms: _241  and  _242
REMARK  106  A    between atoms: _247  and  _249
REMARK  107  A    between atoms: _249  and  _250
REMARK  108  A    between atoms: _249  and  _252
REMARK  109  A    between atoms: _252  and  _253
REMARK  110  A    between atoms: _259  and  _261
REMARK  111  A    between atoms: _261  and  _262
REMARK  112  A    between atoms: _261  and  _264
REMARK  113  A    between atoms: _264  and  _265
REMARK  114  A    between atoms: _265  and  _266
REMARK  115  A    between atoms: _266  and  _267
REMARK  116  A    between atoms: _276  and  _278
REMARK  117  A    between atoms: _278  and  _279
REMARK  118  A    between atoms: _278  and  _281
REMARK  119  A    between atoms: _281  and  _282
REMARK  120  A    between atoms: _287  and  _289
REMARK  121  A    between atoms: _289  and  _290
REMARK  122  A    between atoms: _289  and  _292
REMARK  123  A    between atoms: _292  and  _293
REMARK  124  A    between atoms: _296  and  _298
REMARK  125  A    between atoms: _298  and  _299
REMARK  126  A    between atoms: _298  and  _301
REMARK  127  A    between atoms: _301  and  _302
REMARK  128  A    between atoms: _305  and  _307
REMARK  129  A    between atoms: _307  and  _308
REMARK  130  A    between atoms: _307  and  _310
REMARK  131  A    between atoms: _310  and  _311
REMARK                            x       y       z     vdW  Elec       q    Type
REMARK                         _______ _______ _______ _____ _____    ______ ____
ROOT
ATOM      1  O   HOH     1      27.042  12.450   7.789  0.00  0.00    +0.000 OA
ENDROOT
TORSDOF 0
REMARK  Name = ../refined-set-2016/1mai/1mai_pocket.pdb
REMARK  131 active torsions:
REMARK  status: ('A' for Active; 'I' for Inactive)
REMARK    1  A    between atoms: _1  and  _3
REMARK    2  A    between atoms: _3  and  _4
REMARK    3  A    between atoms: _3  and  _6
REMARK    4  A    between atoms: _6  and  _7
REMARK    5  A    between atoms: _7  and  _8
REMARK    6  A    between atoms: _8  and  _9
REMARK    7  A    between atoms: _9  and  _10
REMARK    8  A    between atoms: _14  and  _16
REMARK    9  A    between atoms: _16  and  _17
REMARK   10  A    between atoms: _16  and  _19
REMARK   11  A    between atoms: _22  and  _24
REMARK   12  A    between atoms: _24  and  _25
REMARK   13  A    between atoms: _24  and  _27
REMARK   14  A    between atoms: _27  and  _28
REMARK   15  A    between atoms: _28  and  _29
REMARK   16  A    between atoms: _29  and  _30
REMARK   17  A    between atoms: _30  and  _31
REMARK   18  A    between atoms: _35  and  _37
REMARK   19  A    between atoms: _37  and  _38
REMARK   20  A    between atoms: _37  and  _40
REMARK   21  A    between atoms: _40  and  _41
REMARK   22  A    between atoms: _43  and  _45
REMARK   23  A    between atoms: _45  and  _46
REMARK   24  A    between atoms: _45  and  _48
REMARK   25  A    between atoms: _48  and  _49
REMARK   26  A    between atoms: _51  and  _53
REMARK   27  A    between atoms: _53  and  _54
REMARK   28  A    between atoms: _53  and  _56
REMARK   29  A    between atoms: _56  and  _57
REMARK   30  A    between atoms: _67  and  _69
REMARK   31  A    between atoms: _69  and  _70
REMARK   32  A    between atoms: _69  and  _72
REMARK   33  A    between atoms: _72  and  _73
REMARK   34  A    between atoms: _73  and  _74
REMARK   35  A    between atoms: _74  and  _75
REMARK   36  A    between atoms: _84  and  _86
REMARK   37  A    between atoms: _86  and  _87
REMARK   38  A    between atoms: _86  and  _89
REMARK   39  A    between atoms: _89  and  _90
REMARK   40  A    between atoms: _90  and  _91
REMARK   41  A    between atoms: _94  and  _96
REMARK   42  A    between atoms: _96  and  _97
REMARK   43  A    between atoms: _96  and  _99
REMARK   44  A    between atoms: _99  and  _100
REMARK   45  A    between atoms: _100  and  _101
REMARK   46  A    between atoms: _101  and  _102
REMARK   47  A    between atoms: _111  and  _113
REMARK   48  A    between atoms: _113  and  _114
REMARK   49  A    between atoms: _113  and  _116
REMARK   50  A    between atoms: _116  and  _117
REMARK   51  A    between atoms: _122  and  _123
REMARK   52  A    between atoms: _125  and  _127
REMARK   53  A    between atoms: _127  and  _128
REMARK   54  A    between atoms: _127  and  _130
REMARK   55  A    between atoms: _130  and  _131
REMARK   56  A    between atoms: _131  and  _132
REMARK   57  A    between atoms: _137  and  _139
REMARK   58  A    between atoms: _139  and  _140
REMARK   59  A    between atoms: _139  and  _142
REMARK   60  A    between atoms: _142  and  _143
REMARK   61  A    between atoms: _143  and  _144
REMARK   62  A    between atoms: _147  and  _149
REMARK   63  A    between atoms: _149  and  _150
REMARK   64  A    between atoms: _149  and  _152
REMARK   65  A    between atoms: _152  and  _153
REMARK   66  A    between atoms: _155  and  _157
REMARK   67  A    between atoms: _157  and  _158
REMARK   68  A    between atoms: _157  and  _160
REMARK   69  A    between atoms: _160  and  _161
REMARK   70  A    between atoms: _161  and  _162
REMARK   71  A    between atoms: _162  and  _163
REMARK   72  A    between atoms: _172  and  _174
REMARK   73  A    between atoms: _174  and  _175
REMARK   74  A    between atoms: _174  and  _177
REMARK   75  A    between atoms: _177  and  _178
REMARK   76  A    between atoms: _178  and  _179
REMARK   77  A    between atoms: _179  and  _180
REMARK   78  A    between atoms: _180  and  _181
REMARK   79  A    between atoms: _185  and  _187
REMARK   80  A    between atoms: _187  and  _188
REMARK   81  A    between atoms: _187  and  _190
REMARK   82  A    between atoms: _193  and  _195
REMARK   83  A    between atoms: _195  and  _196
REMARK   84  A    between atoms: _195  and  _198
REMARK   85  A    between atoms: _198  and  _199
REMARK   86  A    between atoms: _199  and  _200
REMARK   87  A    between atoms: _202  and  _204
REMARK   88  A    between atoms: _204  and  _205
REMARK   89  A    between atoms: _204  and  _207
REMARK   90  A    between atoms: _207  and  _208
REMARK   91  A    between atoms: _208  and  _209
REMARK   92  A    between atoms: _209  and  _210
REMARK   93  A    between atoms: _219  and  _221
REMARK   94  A    between atoms: _221  and  _222
REMARK   95  A    between atoms: _221  and  _224
REMARK   96  A    between atoms: _224  and  _225
REMARK   97  A    between atoms: _227  and  _229
REMARK   98  A    between atoms: _229  and  _230
REMARK   99  A    between atoms: _229  and  _232
REMARK  100  A    between atoms: _232  and  _233
REMARK  101  A    between atoms: _235  and  _237
REMARK  102  A    between atoms: _237  and  _238
REMARK  103  A    between atoms: _237  and  _240
REMARK  104  A    between atoms: _240  and  _241
REMARK  105  A    between atoms: _241  and  _242
REMARK  106  A    between atoms: _247  and  _249
REMARK  107  A    between atoms: _249  and  _250
REMARK  108  A    between atoms: _249  and  _252
REMARK  109  A    between atoms: _252  and  _253
REMARK  110  A    between atoms: _259  and  _261
REMARK  111  A    between atoms: _261  and  _262
REMARK  112  A    between atoms: _261  and  _264
REMARK  113  A    between atoms: _264  and  _265
REMARK  114  A    between atoms: _265  and  _266
REMARK  115  A    between atoms: _266  and  _267
REMARK  116  A    between atoms: _276  and  _278
REMARK  117  A    between atoms: _278  and  _279
REMARK  118  A    between atoms: _278  and  _281
REMARK  119  A    between atoms: _281  and  _282
REMARK  120  A    between atoms: _287  and  _289
REMARK  121  A    between atoms: _289  and  _290
REMARK  122  A    between atoms: _289  and  _292
REMARK  123  A    between atoms: _292  and  _293
REMARK  124  A    between atoms: _296  and  _298
REMARK  125  A    between atoms: _298  and  _299
REMARK  126  A    between atoms: _298  and  _301
REMARK  127  A    between atoms: _301  and  _302
REMARK  128  A    between atoms: _305  and  _307
REMARK  129  A    between atoms: _307  and  _308
REMARK  130  A    between atoms: _307  and  _310
REMARK  131  A    between atoms: _310  and  _311
REMARK                            x       y       z     vdW  Elec       q    Type
REMARK                         _______ _______ _______ _____ _____    ______ ____
ROOT
ATOM      1  O   HOH     1      30.012  19.175  13.663  0.00  0.00    +0.000 OA
ENDROOT
TORSDOF 0
REMARK  Name = ../refined-set-2016/1mai/1mai_pocket.pdb
REMARK  131 active torsions:
REMARK  status: ('A' for Active; 'I' for Inactive)
REMARK    1  A    between atoms: _1  and  _3
REMARK    2  A    between atoms: _3  and  _4
REMARK    3  A    between atoms: _3  and  _6
REMARK    4  A    between atoms: _6  and  _7
REMARK    5  A    between atoms: _7  and  _8
REMARK    6  A    between atoms: _8  and  _9
REMARK    7  A    between atoms: _9  and  _10
REMARK    8  A    between atoms: _14  and  _16
REMARK    9  A    between atoms: _16  and  _17
REMARK   10  A    between atoms: _16  and  _19
REMARK   11  A    between atoms: _22  and  _24
REMARK   12  A    between atoms: _24  and  _25
REMARK   13  A    between atoms: _24  and  _27
REMARK   14  A    between atoms: _27  and  _28
REMARK   15  A    between atoms: _28  and  _29
REMARK   16  A    between atoms: _29  and  _30
REMARK   17  A    between atoms: _30  and  _31
REMARK   18  A    between atoms: _35  and  _37
REMARK   19  A    between atoms: _37  and  _38
REMARK   20  A    between atoms: _37  and  _40
REMARK   21  A    between atoms: _40  and  _41
REMARK   22  A    between atoms: _43  and  _45
REMARK   23  A    between atoms: _45  and  _46
REMARK   24  A    between atoms: _45  and  _48
REMARK   25  A    between atoms: _48  and  _49
REMARK   26  A    between atoms: _51  and  _53
REMARK   27  A    between atoms: _53  and  _54
REMARK   28  A    between atoms: _53  and  _56
REMARK   29  A    between atoms: _56  and  _57
REMARK   30  A    between atoms: _67  and  _69
REMARK   31  A    between atoms: _69  and  _70
REMARK   32  A    between atoms: _69  and  _72
REMARK   33  A    between atoms: _72  and  _73
REMARK   34  A    between atoms: _73  and  _74
REMARK   35  A    between atoms: _74  and  _75
REMARK   36  A    between atoms: _84  and  _86
REMARK   37  A    between atoms: _86  and  _87
REMARK   38  A    between atoms: _86  and  _89
REMARK   39  A    between atoms: _89  and  _90
REMARK   40  A    between atoms: _90  and  _91
REMARK   41  A    between atoms: _94  and  _96
REMARK   42  A    between atoms: _96  and  _97
REMARK   43  A    between atoms: _96  and  _99
REMARK   44  A    between atoms: _99  and  _100
REMARK   45  A    between atoms: _100  and  _101
REMARK   46  A    between atoms: _101  and  _102
REMARK   47  A    between atoms: _111  and  _113
REMARK   48  A    between atoms: _113  and  _114
REMARK   49  A    between atoms: _113  and  _116
REMARK   50  A    between atoms: _116  and  _117
REMARK   51  A    between atoms: _122  and  _123
REMARK   52  A    between atoms: _125  and  _127
REMARK   53  A    between atoms: _127  and  _128
REMARK   54  A    between atoms: _127  and  _130
REMARK   55  A    between atoms: _130  and  _131
REMARK   56  A    between atoms: _131  and  _132
REMARK   57  A    between atoms: _137  and  _139
REMARK   58  A    between atoms: _139  and  _140
REMARK   59  A    between atoms: _139  and  _142
REMARK   60  A    between atoms: _142  and  _143
REMARK   61  A    between atoms: _143  and  _144
REMARK   62  A    between atoms: _147  and  _149
REMARK   63  A    between atoms: _149  and  _150
REMARK   64  A    between atoms: _149  and  _152
REMARK   65  A    between atoms: _152  and  _153
REMARK   66  A    between atoms: _155  and  _157
REMARK   67  A    between atoms: _157  and  _158
REMARK   68  A    between atoms: _157  and  _160
REMARK   69  A    between atoms: _160  and  _161
REMARK   70  A    between atoms: _161  and  _162
REMARK   71  A    between atoms: _162  and  _163
REMARK   72  A    between atoms: _172  and  _174
REMARK   73  A    between atoms: _174  and  _175
REMARK   74  A    between atoms: _174  and  _177
REMARK   75  A    between atoms: _177  and  _178
REMARK   76  A    between atoms: _178  and  _179
REMARK   77  A    between atoms: _179  and  _180
REMARK   78  A    between atoms: _180  and  _181
REMARK   79  A    between atoms: _185  and  _187
REMARK   80  A    between atoms: _187  and  _188
REMARK   81  A    between atoms: _187  and  _190
REMARK   82  A    between atoms: _193  and  _195
REMARK   83  A    between atoms: _195  and  _196
REMARK   84  A    between atoms: _195  and  _198
REMARK   85  A    between atoms: _198  and  _199
REMARK   86  A    between atoms: _199  and  _200
REMARK   87  A    between atoms: _202  and  _204
REMARK   88  A    between atoms: _204  and  _205
REMARK   89  A    between atoms: _204  and  _207
REMARK   90  A    between atoms: _207  and  _208
REMARK   91  A    between atoms: _208  and  _209
REMARK   92  A    between atoms: _209  and  _210
REMARK   93  A    between atoms: _219  and  _221
REMARK   94  A    between atoms: _221  and  _222
REMARK   95  A    between atoms: _221  and  _224
REMARK   96  A    between atoms: _224  and  _225
REMARK   97  A    between atoms: _227  and  _229
REMARK   98  A    between atoms: _229  and  _230
REMARK   99  A    between atoms: _229  and  _232
REMARK  100  A    between atoms: _232  and  _233
REMARK  101  A    between atoms: _235  and  _237
REMARK  102  A    between atoms: _237  and  _238
REMARK  103  A    between atoms: _237  and  _240
REMARK  104  A    between atoms: _240  and  _241
REMARK  105  A    between atoms: _241  and  _242
REMARK  106  A    between atoms: _247  and  _249
REMARK  107  A    between atoms: _249  and  _250
REMARK  108  A    between atoms: _249  and  _252
REMARK  109  A    between atoms: _252  and  _253
REMARK  110  A    between atoms: _259  and  _261
REMARK  111  A    between atoms: _261  and  _262
REMARK  112  A    between atoms: _261  and  _264
REMARK  113  A    between atoms: _264  and  _265
REMARK  114  A    between atoms: _265  and  _266
REMARK  115  A    between atoms: _266  and  _267
REMARK  116  A    between atoms: _276  and  _278
REMARK  117  A    between atoms: _278  and  _279
REMARK  118  A    between atoms: _278  and  _281
REMARK  119  A    between atoms: _281  and  _282
REMARK  120  A    between atoms: _287  and  _289
REMARK  121  A    between atoms: _289  and  _290
REMARK  122  A    between atoms: _289  and  _292
REMARK  123  A    between atoms: _292  and  _293
REMARK  124  A    between atoms: _296  and  _298
REMARK  125  A    between atoms: _298  and  _299
REMARK  126  A    between atoms: _298  and  _301
REMARK  127  A    between atoms: _301  and  _302
REMARK  128  A    between atoms: _305  and  _307
REMARK  129  A    between atoms: _307  and  _308
REMARK  130  A    between atoms: _307  and  _310
REMARK  131  A    between atoms: _310  and  _311
REMARK                            x       y       z     vdW  Elec       q    Type
REMARK                         _______ _______ _______ _____ _____    ______ ____
ROOT
ATOM      1  O   HOH     1      27.667  24.633   1.341  0.00  0.00    +0.000 OA
ENDROOT
TORSDOF 0
REMARK  Name = ../refined-set-2016/1mai/1mai_pocket.pdb
REMARK  131 active torsions:
REMARK  status: ('A' for Active; 'I' for Inactive)
REMARK    1  A    between atoms: _1  and  _3
REMARK    2  A    between atoms: _3  and  _4
REMARK    3  A    between atoms: _3  and  _6
REMARK    4  A    between atoms: _6  and  _7
REMARK    5  A    between atoms: _7  and  _8
REMARK    6  A    between atoms: _8  and  _9
REMARK    7  A    between atoms: _9  and  _10
REMARK    8  A    between atoms: _14  and  _16
REMARK    9  A    between atoms: _16  and  _17
REMARK   10  A    between atoms: _16  and  _19
REMARK   11  A    between atoms: _22  and  _24
REMARK   12  A    between atoms: _24  and  _25
REMARK   13  A    between atoms: _24  and  _27
REMARK   14  A    between atoms: _27  and  _28
REMARK   15  A    between atoms: _28  and  _29
REMARK   16  A    between atoms: _29  and  _30
REMARK   17  A    between atoms: _30  and  _31
REMARK   18  A    between atoms: _35  and  _37
REMARK   19  A    between atoms: _37  and  _38
REMARK   20  A    between atoms: _37  and  _40
REMARK   21  A    between atoms: _40  and  _41
REMARK   22  A    between atoms: _43  and  _45
REMARK   23  A    between atoms: _45  and  _46
REMARK   24  A    between atoms: _45  and  _48
REMARK   25  A    between atoms: _48  and  _49
REMARK   26  A    between atoms: _51  and  _53
REMARK   27  A    between atoms: _53  and  _54
REMARK   28  A    between atoms: _53  and  _56
REMARK   29  A    between atoms: _56  and  _57
REMARK   30  A    between atoms: _67  and  _69
REMARK   31  A    between atoms: _69  and  _70
REMARK   32  A    between atoms: _69  and  _72
REMARK   33  A    between atoms: _72  and  _73
REMARK   34  A    between atoms: _73  and  _74
REMARK   35  A    between atoms: _74  and  _75
REMARK   36  A    between atoms: _84  and  _86
REMARK   37  A    between atoms: _86  and  _87
REMARK   38  A    between atoms: _86  and  _89
REMARK   39  A    between atoms: _89  and  _90
REMARK   40  A    between atoms: _90  and  _91
REMARK   41  A    between atoms: _94  and  _96
REMARK   42  A    between atoms: _96  and  _97
REMARK   43  A    between atoms: _96  and  _99
REMARK   44  A    between atoms: _99  and  _100
REMARK   45  A    between atoms: _100  and  _101
REMARK   46  A    between atoms: _101  and  _102
REMARK   47  A    between atoms: _111  and  _113
REMARK   48  A    between atoms: _113  and  _114
REMARK   49  A    between atoms: _113  and  _116
REMARK   50  A    between atoms: _116  and  _117
REMARK   51  A    between atoms: _122  and  _123
REMARK   52  A    between atoms: _125  and  _127
REMARK   53  A    between atoms: _127  and  _128
REMARK   54  A    between atoms: _127  and  _130
REMARK   55  A    between atoms: _130  and  _131
REMARK   56  A    between atoms: _131  and  _132
REMARK   57  A    between atoms: _137  and  _139
REMARK   58  A    between atoms: _139  and  _140
REMARK   59  A    between atoms: _139  and  _142
REMARK   60  A    between atoms: _142  and  _143
REMARK   61  A    between atoms: _143  and  _144
REMARK   62  A    between atoms: _147  and  _149
REMARK   63  A    between atoms: _149  and  _150
REMARK   64  A    between atoms: _149  and  _152
REMARK   65  A    between atoms: _152  and  _153
REMARK   66  A    between atoms: _155  and  _157
REMARK   67  A    between atoms: _157  and  _158
REMARK   68  A    between atoms: _157  and  _160
REMARK   69  A    between atoms: _160  and  _161
REMARK   70  A    between atoms: _161  and  _162
REMARK   71  A    between atoms: _162  and  _163
REMARK   72  A    between atoms: _172  and  _174
REMARK   73  A    between atoms: _174  and  _175
REMARK   74  A    between atoms: _174  and  _177
REMARK   75  A    between atoms: _177  and  _178
REMARK   76  A    between atoms: _178  and  _179
REMARK   77  A    between atoms: _179  and  _180
REMARK   78  A    between atoms: _180  and  _181
REMARK   79  A    between atoms: _185  and  _187
REMARK   80  A    between atoms: _187  and  _188
REMARK   81  A    between atoms: _187  and  _190
REMARK   82  A    between atoms: _193  and  _195
REMARK   83  A    between atoms: _195  and  _196
REMARK   84  A    between atoms: _195  and  _198
REMARK   85  A    between atoms: _198  and  _199
REMARK   86  A    between atoms: _199  and  _200
REMARK   87  A    between atoms: _202  and  _204
REMARK   88  A    between atoms: _204  and  _205
REMARK   89  A    between atoms: _204  and  _207
REMARK   90  A    between atoms: _207  and  _208
REMARK   91  A    between atoms: _208  and  _209
REMARK   92  A    between atoms: _209  and  _210
REMARK   93  A    between atoms: _219  and  _221
REMARK   94  A    between atoms: _221  and  _222
REMARK   95  A    between atoms: _221  and  _224
REMARK   96  A    between atoms: _224  and  _225
REMARK   97  A    between atoms: _227  and  _229
REMARK   98  A    between atoms: _229  and  _230
REMARK   99  A    between atoms: _229  and  _232
REMARK  100  A    between atoms: _232  and  _233
REMARK  101  A    between atoms: _235  and  _237
REMARK  102  A    between atoms: _237  and  _238
REMARK  103  A    between atoms: _237  and  _240
REMARK  104  A    between atoms: _240  and  _241
REMARK  105  A    between atoms: _241  and  _242
REMARK  106  A    between atoms: _247  and  _249
REMARK  107  A    between atoms: _249  and  _250
REMARK  108  A    between atoms: _249  and  _252
REMARK  109  A    between atoms: _252  and  _253
REMARK  110  A    between atoms: _259  and  _261
REMARK  111  A    between atoms: _261  and  _262
REMARK  112  A    between atoms: _261  and  _264
REMARK  113  A    between atoms: _264  and  _265
REMARK  114  A    between atoms: _265  and  _266
REMARK  115  A    between atoms: _266  and  _267
REMARK  116  A    between atoms: _276  and  _278
REMARK  117  A    between atoms: _278  and  _279
REMARK  118  A    between atoms: _278  and  _281
REMARK  119  A    between atoms: _281  and  _282
REMARK  120  A    between atoms: _287  and  _289
REMARK  121  A    between atoms: _289  and  _290
REMARK  122  A    between atoms: _289  and  _292
REMARK  123  A    between atoms: _292  and  _293
REMARK  124  A    between atoms: _296  and  _298
REMARK  125  A    between atoms: _298  and  _299
REMARK  126  A    between atoms: _298  and  _301
REMARK  127  A    between atoms: _301  and  _302
REMARK  128  A    between atoms: _305  and  _307
REMARK  129  A    between atoms: _307  and  _308
REMARK  130  A    between atoms: _307  and  _310
REMARK  131  A    between atoms: _310  and  _311
REMARK                            x       y       z     vdW  Elec       q    Type
REMARK                         _______ _______ _______ _____ _____    ______ ____
ROOT
ATOM      1  O   HOH     1      35.479  15.788  -0.253  0.00  0.00    +0.000 OA
ENDROOT
TORSDOF 0
REMARK  Name = ../refined-set-2016/1mai/1mai_pocket.pdb
REMARK  131 active torsions:
REMARK  status: ('A' for Active; 'I' for Inactive)
REMARK    1  A    between atoms: _1  and  _3
REMARK    2  A    between atoms: _3  and  _4
REMARK    3  A    between atoms: _3  and  _6
REMARK    4  A    between atoms: _6  and  _7
REMARK    5  A    between atoms: _7  and  _8
REMARK    6  A    between atoms: _8  and  _9
REMARK    7  A    between atoms: _9  and  _10
REMARK    8  A    between atoms: _14  and  _16
REMARK    9  A    between atoms: _16  and  _17
REMARK   10  A    between atoms: _16  and  _19
REMARK   11  A    between atoms: _22  and  _24
REMARK   12  A    between atoms: _24  and  _25
REMARK   13  A    between atoms: _24  and  _27
REMARK   14  A    between atoms: _27  and  _28
REMARK   15  A    between atoms: _28  and  _29
REMARK   16  A    between atoms: _29  and  _30
REMARK   17  A    between atoms: _30  and  _31
REMARK   18  A    between atoms: _35  and  _37
REMARK   19  A    between atoms: _37  and  _38
REMARK   20  A    between atoms: _37  and  _40
REMARK   21  A    between atoms: _40  and  _41
REMARK   22  A    between atoms: _43  and  _45
REMARK   23  A    between atoms: _45  and  _46
REMARK   24  A    between atoms: _45  and  _48
REMARK   25  A    between atoms: _48  and  _49
REMARK   26  A    between atoms: _51  and  _53
REMARK   27  A    between atoms: _53  and  _54
REMARK   28  A    between atoms: _53  and  _56
REMARK   29  A    between atoms: _56  and  _57
REMARK   30  A    between atoms: _67  and  _69
REMARK   31  A    between atoms: _69  and  _70
REMARK   32  A    between atoms: _69  and  _72
REMARK   33  A    between atoms: _72  and  _73
REMARK   34  A    between atoms: _73  and  _74
REMARK   35  A    between atoms: _74  and  _75
REMARK   36  A    between atoms: _84  and  _86
REMARK   37  A    between atoms: _86  and  _87
REMARK   38  A    between atoms: _86  and  _89
REMARK   39  A    between atoms: _89  and  _90
REMARK   40  A    between atoms: _90  and  _91
REMARK   41  A    between atoms: _94  and  _96
REMARK   42  A    between atoms: _96  and  _97
REMARK   43  A    between atoms: _96  and  _99
REMARK   44  A    between atoms: _99  and  _100
REMARK   45  A    between atoms: _100  and  _101
REMARK   46  A    between atoms: _101  and  _102
REMARK   47  A    between atoms: _111  and  _113
REMARK   48  A    between atoms: _113  and  _114
REMARK   49  A    between atoms: _113  and  _116
REMARK   50  A    between atoms: _116  and  _117
REMARK   51  A    between atoms: _122  and  _123
REMARK   52  A    between atoms: _125  and  _127
REMARK   53  A    between atoms: _127  and  _128
REMARK   54  A    between atoms: _127  and  _130
REMARK   55  A    between atoms: _130  and  _131
REMARK   56  A    between atoms: _131  and  _132
REMARK   57  A    between atoms: _137  and  _139
REMARK   58  A    between atoms: _139  and  _140
REMARK   59  A    between atoms: _139  and  _142
REMARK   60  A    between atoms: _142  and  _143
REMARK   61  A    between atoms: _143  and  _144
REMARK   62  A    between atoms: _147  and  _149
REMARK   63  A    between atoms: _149  and  _150
REMARK   64  A    between atoms: _149  and  _152
REMARK   65  A    between atoms: _152  and  _153
REMARK   66  A    between atoms: _155  and  _157
REMARK   67  A    between atoms: _157  and  _158
REMARK   68  A    between atoms: _157  and  _160
REMARK   69  A    between atoms: _160  and  _161
REMARK   70  A    between atoms: _161  and  _162
REMARK   71  A    between atoms: _162  and  _163
REMARK   72  A    between atoms: _172  and  _174
REMARK   73  A    between atoms: _174  and  _175
REMARK   74  A    between atoms: _174  and  _177
REMARK   75  A    between atoms: _177  and  _178
REMARK   76  A    between atoms: _178  and  _179
REMARK   77  A    between atoms: _179  and  _180
REMARK   78  A    between atoms: _180  and  _181
REMARK   79  A    between atoms: _185  and  _187
REMARK   80  A    between atoms: _187  and  _188
REMARK   81  A    between atoms: _187  and  _190
REMARK   82  A    between atoms: _193  and  _195
REMARK   83  A    between atoms: _195  and  _196
REMARK   84  A    between atoms: _195  and  _198
REMARK   85  A    between atoms: _198  and  _199
REMARK   86  A    between atoms: _199  and  _200
REMARK   87  A    between atoms: _202  and  _204
REMARK   88  A    between atoms: _204  and  _205
REMARK   89  A    between atoms: _204  and  _207
REMARK   90  A    between atoms: _207  and  _208
REMARK   91  A    between atoms: _208  and  _209
REMARK   92  A    between atoms: _209  and  _210
REMARK   93  A    between atoms: _219  and  _221
REMARK   94  A    between atoms: _221  and  _222
REMARK   95  A    between atoms: _221  and  _224
REMARK   96  A    between atoms: _224  and  _225
REMARK   97  A    between atoms: _227  and  _229
REMARK   98  A    between atoms: _229  and  _230
REMARK   99  A    between atoms: _229  and  _232
REMARK  100  A    between atoms: _232  and  _233
REMARK  101  A    between atoms: _235  and  _237
REMARK  102  A    between atoms: _237  and  _238
REMARK  103  A    between atoms: _237  and  _240
REMARK  104  A    between atoms: _240  and  _241
REMARK  105  A    between atoms: _241  and  _242
REMARK  106  A    between atoms: _247  and  _249
REMARK  107  A    between atoms: _249  and  _250
REMARK  108  A    between atoms: _249  and  _252
REMARK  109  A    between atoms: _252  and  _253
REMARK  110  A    between atoms: _259  and  _261
REMARK  111  A    between atoms: _261  and  _262
REMARK  112  A    between atoms: _261  and  _264
REMARK  113  A    between atoms: _264  and  _265
REMARK  114  A    between atoms: _265  and  _266
REMARK  115  A    between atoms: _266  and  _267
REMARK  116  A    between atoms: _276  and  _278
REMARK  117  A    between atoms: _278  and  _279
REMARK  118  A    between atoms: _278  and  _281
REMARK  119  A    between atoms: _281  and  _282
REMARK  120  A    between atoms: _287  and  _289
REMARK  121  A    between atoms: _289  and  _290
REMARK  122  A    between atoms: _289  and  _292
REMARK  123  A    between atoms: _292  and  _293
REMARK  124  A    between atoms: _296  and  _298
REMARK  125  A    between atoms: _298  and  _299
REMARK  126  A    between atoms: _298  and  _301
REMARK  127  A    between atoms: _301  and  _302
REMARK  128  A    between atoms: _305  and  _307
REMARK  129  A    between atoms: _307  and  _308
REMARK  130  A    between atoms: _307  and  _310
REMARK  131  A    between atoms: _310  and  _311
REMARK                            x       y       z     vdW  Elec       q    Type
REMARK                         _______ _______ _______ _____ _____    ______ ____
ROOT
ATOM      1  O   HOH     1      27.818   8.648  -0.682  0.00  0.00    +0.000 OA
ENDROOT
TORSDOF 0
REMARK  Name = ../refined-set-2016/1mai/1mai_pocket.pdb
REMARK  131 active torsions:
REMARK  status: ('A' for Active; 'I' for Inactive)
REMARK    1  A    between atoms: _1  and  _3
REMARK    2  A    between atoms: _3  and  _4
REMARK    3  A    between atoms: _3  and  _6
REMARK    4  A    between atoms: _6  and  _7
REMARK    5  A    between atoms: _7  and  _8
REMARK    6  A    between atoms: _8  and  _9
REMARK    7  A    between atoms: _9  and  _10
REMARK    8  A    between atoms: _14  and  _16
REMARK    9  A    between atoms: _16  and  _17
REMARK   10  A    between atoms: _16  and  _19
REMARK   11  A    between atoms: _22  and  _24
REMARK   12  A    between atoms: _24  and  _25
REMARK   13  A    between atoms: _24  and  _27
REMARK   14  A    between atoms: _27  and  _28
REMARK   15  A    between atoms: _28  and  _29
REMARK   16  A    between atoms: _29  and  _30
REMARK   17  A    between atoms: _30  and  _31
REMARK   18  A    between atoms: _35  and  _37
REMARK   19  A    between atoms: _37  and  _38
REMARK   20  A    between atoms: _37  and  _40
REMARK   21  A    between atoms: _40  and  _41
REMARK   22  A    between atoms: _43  and  _45
REMARK   23  A    between atoms: _45  and  _46
REMARK   24  A    between atoms: _45  and  _48
REMARK   25  A    between atoms: _48  and  _49
REMARK   26  A    between atoms: _51  and  _53
REMARK   27  A    between atoms: _53  and  _54
REMARK   28  A    between atoms: _53  and  _56
REMARK   29  A    between atoms: _56  and  _57
REMARK   30  A    between atoms: _67  and  _69
REMARK   31  A    between atoms: _69  and  _70
REMARK   32  A    between atoms: _69  and  _72
REMARK   33  A    between atoms: _72  and  _73
REMARK   34  A    between atoms: _73  and  _74
REMARK   35  A    between atoms: _74  and  _75
REMARK   36  A    between atoms: _84  and  _86
REMARK   37  A    between atoms: _86  and  _87
REMARK   38  A    between atoms: _86  and  _89
REMARK   39  A    between atoms: _89  and  _90
REMARK   40  A    between atoms: _90  and  _91
REMARK   41  A    between atoms: _94  and  _96
REMARK   42  A    between atoms: _96  and  _97
REMARK   43  A    between atoms: _96  and  _99
REMARK   44  A    between atoms: _99  and  _100
REMARK   45  A    between atoms: _100  and  _101
REMARK   46  A    between atoms: _101  and  _102
REMARK   47  A    between atoms: _111  and  _113
REMARK   48  A    between atoms: _113  and  _114
REMARK   49  A    between atoms: _113  and  _116
REMARK   50  A    between atoms: _116  and  _117
REMARK   51  A    between atoms: _122  and  _123
REMARK   52  A    between atoms: _125  and  _127
REMARK   53  A    between atoms: _127  and  _128
REMARK   54  A    between atoms: _127  and  _130
REMARK   55  A    between atoms: _130  and  _131
REMARK   56  A    between atoms: _131  and  _132
REMARK   57  A    between atoms: _137  and  _139
REMARK   58  A    between atoms: _139  and  _140
REMARK   59  A    between atoms: _139  and  _142
REMARK   60  A    between atoms: _142  and  _143
REMARK   61  A    between atoms: _143  and  _144
REMARK   62  A    between atoms: _147  and  _149
REMARK   63  A    between atoms: _149  and  _150
REMARK   64  A    between atoms: _149  and  _152
REMARK   65  A    between atoms: _152  and  _153
REMARK   66  A    between atoms: _155  and  _157
REMARK   67  A    between atoms: _157  and  _158
REMARK   68  A    between atoms: _157  and  _160
REMARK   69  A    between atoms: _160  and  _161
REMARK   70  A    between atoms: _161  and  _162
REMARK   71  A    between atoms: _162  and  _163
REMARK   72  A    between atoms: _172  and  _174
REMARK   73  A    between atoms: _174  and  _175
REMARK   74  A    between atoms: _174  and  _177
REMARK   75  A    between atoms: _177  and  _178
REMARK   76  A    between atoms: _178  and  _179
REMARK   77  A    between atoms: _179  and  _180
REMARK   78  A    between atoms: _180  and  _181
REMARK   79  A    between atoms: _185  and  _187
REMARK   80  A    between atoms: _187  and  _188
REMARK   81  A    between atoms: _187  and  _190
REMARK   82  A    between atoms: _193  and  _195
REMARK   83  A    between atoms: _195  and  _196
REMARK   84  A    between atoms: _195  and  _198
REMARK   85  A    between atoms: _198  and  _199
REMARK   86  A    between atoms: _199  and  _200
REMARK   87  A    between atoms: _202  and  _204
REMARK   88  A    between atoms: _204  and  _205
REMARK   89  A    between atoms: _204  and  _207
REMARK   90  A    between atoms: _207  and  _208
REMARK   91  A    between atoms: _208  and  _209
REMARK   92  A    between atoms: _209  and  _210
REMARK   93  A    between atoms: _219  and  _221
REMARK   94  A    between atoms: _221  and  _222
REMARK   95  A    between atoms: _221  and  _224
REMARK   96  A    between atoms: _224  and  _225
REMARK   97  A    between atoms: _227  and  _229
REMARK   98  A    between atoms: _229  and  _230
REMARK   99  A    between atoms: _229  and  _232
REMARK  100  A    between atoms: _232  and  _233
REMARK  101  A    between atoms: _235  and  _237
REMARK  102  A    between atoms: _237  and  _238
REMARK  103  A    between atoms: _237  and  _240
REMARK  104  A    between atoms: _240  and  _241
REMARK  105  A    between atoms: _241  and  _242
REMARK  106  A    between atoms: _247  and  _249
REMARK  107  A    between atoms: _249  and  _250
REMARK  108  A    between atoms: _249  and  _252
REMARK  109  A    between atoms: _252  and  _253
REMARK  110  A    between atoms: _259  and  _261
REMARK  111  A    between atoms: _261  and  _262
REMARK  112  A    between atoms: _261  and  _264
REMARK  113  A    between atoms: _264  and  _265
REMARK  114  A    between atoms: _265  and  _266
REMARK  115  A    between atoms: _266  and  _267
REMARK  116  A    between atoms: _276  and  _278
REMARK  117  A    between atoms: _278  and  _279
REMARK  118  A    between atoms: _278  and  _281
REMARK  119  A    between atoms: _281  and  _282
REMARK  120  A    between atoms: _287  and  _289
REMARK  121  A    between atoms: _289  and  _290
REMARK  122  A    between atoms: _289  and  _292
REMARK  123  A    between atoms: _292  and  _293
REMARK  124  A    between atoms: _296  and  _298
REMARK  125  A    between atoms: _298  and  _299
REMARK  126  A    between atoms: _298  and  _301
REMARK  127  A    between atoms: _301  and  _302
REMARK  128  A    between atoms: _305  and  _307
REMARK  129  A    between atoms: _307  and  _308
REMARK  130  A    between atoms: _307  and  _310
REMARK  131  A    between atoms: _310  and  _311
REMARK                            x       y       z     vdW  Elec       q    Type
REMARK                         _______ _______ _______ _____ _____    ______ ____
ROOT
ATOM      1  O   HOH     1      31.859  17.354  17.578  0.00  0.00    +0.000 OA
ENDROOT
TORSDOF 0
REMARK  Name = ../refined-set-2016/1mai/1mai_pocket.pdb
REMARK  131 active torsions:
REMARK  status: ('A' for Active; 'I' for Inactive)
REMARK    1  A    between atoms: _1  and  _3
REMARK    2  A    between atoms: _3  and  _4
REMARK    3  A    between atoms: _3  and  _6
REMARK    4  A    between atoms: _6  and  _7
REMARK    5  A    between atoms: _7  and  _8
REMARK    6  A    between atoms: _8  and  _9
REMARK    7  A    between atoms: _9  and  _10
REMARK    8  A    between atoms: _14  and  _16
REMARK    9  A    between atoms: _16  and  _17
REMARK   10  A    between atoms: _16  and  _19
REMARK   11  A    between atoms: _22  and  _24
REMARK   12  A    between atoms: _24  and  _25
REMARK   13  A    between atoms: _24  and  _27
REMARK   14  A    between atoms: _27  and  _28
REMARK   15  A    between atoms: _28  and  _29
REMARK   16  A    between atoms: _29  and  _30
REMARK   17  A    between atoms: _30  and  _31
REMARK   18  A    between atoms: _35  and  _37
REMARK   19  A    between atoms: _37  and  _38
REMARK   20  A    between atoms: _37  and  _40
REMARK   21  A    between atoms: _40  and  _41
REMARK   22  A    between atoms: _43  and  _45
REMARK   23  A    between atoms: _45  and  _46
REMARK   24  A    between atoms: _45  and  _48
REMARK   25  A    between atoms: _48  and  _49
REMARK   26  A    between atoms: _51  and  _53
REMARK   27  A    between atoms: _53  and  _54
REMARK   28  A    between atoms: _53  and  _56
REMARK   29  A    between atoms: _56  and  _57
REMARK   30  A    between atoms: _67  and  _69
REMARK   31  A    between atoms: _69  and  _70
REMARK   32  A    between atoms: _69  and  _72
REMARK   33  A    between atoms: _72  and  _73
REMARK   34  A    between atoms: _73  and  _74
REMARK   35  A    between atoms: _74  and  _75
REMARK   36  A    between atoms: _84  and  _86
REMARK   37  A    between atoms: _86  and  _87
REMARK   38  A    between atoms: _86  and  _89
REMARK   39  A    between atoms: _89  and  _90
REMARK   40  A    between atoms: _90  and  _91
REMARK   41  A    between atoms: _94  and  _96
REMARK   42  A    between atoms: _96  and  _97
REMARK   43  A    between atoms: _96  and  _99
REMARK   44  A    between atoms: _99  and  _100
REMARK   45  A    between atoms: _100  and  _101
REMARK   46  A    between atoms: _101  and  _102
REMARK   47  A    between atoms: _111  and  _113
REMARK   48  A    between atoms: _113  and  _114
REMARK   49  A    between atoms: _113  and  _116
REMARK   50  A    between atoms: _116  and  _117
REMARK   51  A    between atoms: _122  and  _123
REMARK   52  A    between atoms: _125  and  _127
REMARK   53  A    between atoms: _127  and  _128
REMARK   54  A    between atoms: _127  and  _130
REMARK   55  A    between atoms: _130  and  _131
REMARK   56  A    between atoms: _131  and  _132
REMARK   57  A    between atoms: _137  and  _139
REMARK   58  A    between atoms: _139  and  _140
REMARK   59  A    between atoms: _139  and  _142
REMARK   60  A    between atoms: _142  and  _143
REMARK   61  A    between atoms: _143  and  _144
REMARK   62  A    between atoms: _147  and  _149
REMARK   63  A    between atoms: _149  and  _150
REMARK   64  A    between atoms: _149  and  _152
REMARK   65  A    between atoms: _152  and  _153
REMARK   66  A    between atoms: _155  and  _157
REMARK   67  A    between atoms: _157  and  _158
REMARK   68  A    between atoms: _157  and  _160
REMARK   69  A    between atoms: _160  and  _161
REMARK   70  A    between atoms: _161  and  _162
REMARK   71  A    between atoms: _162  and  _163
REMARK   72  A    between atoms: _172  and  _174
REMARK   73  A    between atoms: _174  and  _175
REMARK   74  A    between atoms: _174  and  _177
REMARK   75  A    between atoms: _177  and  _178
REMARK   76  A    between atoms: _178  and  _179
REMARK   77  A    between atoms: _179  and  _180
REMARK   78  A    between atoms: _180  and  _181
REMARK   79  A    between atoms: _185  and  _187
REMARK   80  A    between atoms: _187  and  _188
REMARK   81  A    between atoms: _187  and  _190
REMARK   82  A    between atoms: _193  and  _195
REMARK   83  A    between atoms: _195  and  _196
REMARK   84  A    between atoms: _195  and  _198
REMARK   85  A    between atoms: _198  and  _199
REMARK   86  A    between atoms: _199  and  _200
REMARK   87  A    between atoms: _202  and  _204
REMARK   88  A    between atoms: _204  and  _205
REMARK   89  A    between atoms: _204  and  _207
REMARK   90  A    between atoms: _207  and  _208
REMARK   91  A    between atoms: _208  and  _209
REMARK   92  A    between atoms: _209  and  _210
REMARK   93  A    between atoms: _219  and  _221
REMARK   94  A    between atoms: _221  and  _222
REMARK   95  A    between atoms: _221  and  _224
REMARK   96  A    between atoms: _224  and  _225
REMARK   97  A    between atoms: _227  and  _229
REMARK   98  A    between atoms: _229  and  _230
REMARK   99  A    between atoms: _229  and  _232
REMARK  100  A    between atoms: _232  and  _233
REMARK  101  A    between atoms: _235  and  _237
REMARK  102  A    between atoms: _237  and  _238
REMARK  103  A    between atoms: _237  and  _240
REMARK  104  A    between atoms: _240  and  _241
REMARK  105  A    between atoms: _241  and  _242
REMARK  106  A    between atoms: _247  and  _249
REMARK  107  A    between atoms: _249  and  _250
REMARK  108  A    between atoms: _249  and  _252
REMARK  109  A    between atoms: _252  and  _253
REMARK  110  A    between atoms: _259  and  _261
REMARK  111  A    between atoms: _261  and  _262
REMARK  112  A    between atoms: _261  and  _264
REMARK  113  A    between atoms: _264  and  _265
REMARK  114  A    between atoms: _265  and  _266
REMARK  115  A    between atoms: _266  and  _267
REMARK  116  A    between atoms: _276  and  _278
REMARK  117  A    between atoms: _278  and  _279
REMARK  118  A    between atoms: _278  and  _281
REMARK  119  A    between atoms: _281  and  _282
REMARK  120  A    between atoms: _287  and  _289
REMARK  121  A    between atoms: _289  and  _290
REMARK  122  A    between atoms: _289  and  _292
REMARK  123  A    between atoms: _292  and  _293
REMARK  124  A    between atoms: _296  and  _298
REMARK  125  A    between atoms: _298  and  _299
REMARK  126  A    between atoms: _298  and  _301
REMARK  127  A    between atoms: _301  and  _302
REMARK  128  A    between atoms: _305  and  _307
REMARK  129  A    between atoms: _307  and  _308
REMARK  130  A    between atoms: _307  and  _310
REMARK  131  A    between atoms: _310  and  _311
REMARK                            x       y       z     vdW  Elec       q    Type
REMARK                         _______ _______ _______ _____ _____    ______ ____
ROOT
ATOM      1  O   HOH     1      30.195  13.298  12.143  0.00  0.00    +0.000 OA
ENDROOT
TORSDOF 0
REMARK  Name = ../refined-set-2016/1mai/1mai_pocket.pdb
REMARK  131 active torsions:
REMARK  status: ('A' for Active; 'I' for Inactive)
REMARK    1  A    between atoms: _1  and  _3
REMARK    2  A    between atoms: _3  and  _4
REMARK    3  A    between atoms: _3  and  _6
REMARK    4  A    between atoms: _6  and  _7
REMARK    5  A    between atoms: _7  and  _8
REMARK    6  A    between atoms: _8  and  _9
REMARK    7  A    between atoms: _9  and  _10
REMARK    8  A    between atoms: _14  and  _16
REMARK    9  A    between atoms: _16  and  _17
REMARK   10  A    between atoms: _16  and  _19
REMARK   11  A    between atoms: _22  and  _24
REMARK   12  A    between atoms: _24  and  _25
REMARK   13  A    between atoms: _24  and  _27
REMARK   14  A    between atoms: _27  and  _28
REMARK   15  A    between atoms: _28  and  _29
REMARK   16  A    between atoms: _29  and  _30
REMARK   17  A    between atoms: _30  and  _31
REMARK   18  A    between atoms: _35  and  _37
REMARK   19  A    between atoms: _37  and  _38
REMARK   20  A    between atoms: _37  and  _40
REMARK   21  A    between atoms: _40  and  _41
REMARK   22  A    between atoms: _43  and  _45
REMARK   23  A    between atoms: _45  and  _46
REMARK   24  A    between atoms: _45  and  _48
REMARK   25  A    between atoms: _48  and  _49
REMARK   26  A    between atoms: _51  and  _53
REMARK   27  A    between atoms: _53  and  _54
REMARK   28  A    between atoms: _53  and  _56
REMARK   29  A    between atoms: _56  and  _57
REMARK   30  A    between atoms: _67  and  _69
REMARK   31  A    between atoms: _69  and  _70
REMARK   32  A    between atoms: _69  and  _72
REMARK   33  A    between atoms: _72  and  _73
REMARK   34  A    between atoms: _73  and  _74
REMARK   35  A    between atoms: _74  and  _75
REMARK   36  A    between atoms: _84  and  _86
REMARK   37  A    between atoms: _86  and  _87
REMARK   38  A    between atoms: _86  and  _89
REMARK   39  A    between atoms: _89  and  _90
REMARK   40  A    between atoms: _90  and  _91
REMARK   41  A    between atoms: _94  and  _96
REMARK   42  A    between atoms: _96  and  _97
REMARK   43  A    between atoms: _96  and  _99
REMARK   44  A    between atoms: _99  and  _100
REMARK   45  A    between atoms: _100  and  _101
REMARK   46  A    between atoms: _101  and  _102
REMARK   47  A    between atoms: _111  and  _113
REMARK   48  A    between atoms: _113  and  _114
REMARK   49  A    between atoms: _113  and  _116
REMARK   50  A    between atoms: _116  and  _117
REMARK   51  A    between atoms: _122  and  _123
REMARK   52  A    between atoms: _125  and  _127
REMARK   53  A    between atoms: _127  and  _128
REMARK   54  A    between atoms: _127  and  _130
REMARK   55  A    between atoms: _130  and  _131
REMARK   56  A    between atoms: _131  and  _132
REMARK   57  A    between atoms: _137  and  _139
REMARK   58  A    between atoms: _139  and  _140
REMARK   59  A    between atoms: _139  and  _142
REMARK   60  A    between atoms: _142  and  _143
REMARK   61  A    between atoms: _143  and  _144
REMARK   62  A    between atoms: _147  and  _149
REMARK   63  A    between atoms: _149  and  _150
REMARK   64  A    between atoms: _149  and  _152
REMARK   65  A    between atoms: _152  and  _153
REMARK   66  A    between atoms: _155  and  _157
REMARK   67  A    between atoms: _157  and  _158
REMARK   68  A    between atoms: _157  and  _160
REMARK   69  A    between atoms: _160  and  _161
REMARK   70  A    between atoms: _161  and  _162
REMARK   71  A    between atoms: _162  and  _163
REMARK   72  A    between atoms: _172  and  _174
REMARK   73  A    between atoms: _174  and  _175
REMARK   74  A    between atoms: _174  and  _177
REMARK   75  A    between atoms: _177  and  _178
REMARK   76  A    between atoms: _178  and  _179
REMARK   77  A    between atoms: _179  and  _180
REMARK   78  A    between atoms: _180  and  _181
REMARK   79  A    between atoms: _185  and  _187
REMARK   80  A    between atoms: _187  and  _188
REMARK   81  A    between atoms: _187  and  _190
REMARK   82  A    between atoms: _193  and  _195
REMARK   83  A    between atoms: _195  and  _196
REMARK   84  A    between atoms: _195  and  _198
REMARK   85  A    between atoms: _198  and  _199
REMARK   86  A    between atoms: _199  and  _200
REMARK   87  A    between atoms: _202  and  _204
REMARK   88  A    between atoms: _204  and  _205
REMARK   89  A    between atoms: _204  and  _207
REMARK   90  A    between atoms: _207  and  _208
REMARK   91  A    between atoms: _208  and  _209
REMARK   92  A    between atoms: _209  and  _210
REMARK   93  A    between atoms: _219  and  _221
REMARK   94  A    between atoms: _221  and  _222
REMARK   95  A    between atoms: _221  and  _224
REMARK   96  A    between atoms: _224  and  _225
REMARK   97  A    between atoms: _227  and  _229
REMARK   98  A    between atoms: _229  and  _230
REMARK   99  A    between atoms: _229  and  _232
REMARK  100  A    between atoms: _232  and  _233
REMARK  101  A    between atoms: _235  and  _237
REMARK  102  A    between atoms: _237  and  _238
REMARK  103  A    between atoms: _237  and  _240
REMARK  104  A    between atoms: _240  and  _241
REMARK  105  A    between atoms: _241  and  _242
REMARK  106  A    between atoms: _247  and  _249
REMARK  107  A    between atoms: _249  and  _250
REMARK  108  A    between atoms: _249  and  _252
REMARK  109  A    between atoms: _252  and  _253
REMARK  110  A    between atoms: _259  and  _261
REMARK  111  A    between atoms: _261  and  _262
REMARK  112  A    between atoms: _261  and  _264
REMARK  113  A    between atoms: _264  and  _265
REMARK  114  A    between atoms: _265  and  _266
REMARK  115  A    between atoms: _266  and  _267
REMARK  116  A    between atoms: _276  and  _278
REMARK  117  A    between atoms: _278  and  _279
REMARK  118  A    between atoms: _278  and  _281
REMARK  119  A    between atoms: _281  and  _282
REMARK  120  A    between atoms: _287  and  _289
REMARK  121  A    between atoms: _289  and  _290
REMARK  122  A    between atoms: _289  and  _292
REMARK  123  A    between atoms: _292  and  _293
REMARK  124  A    between atoms: _296  and  _298
REMARK  125  A    between atoms: _298  and  _299
REMARK  126  A    between atoms: _298  and  _301
REMARK  127  A    between atoms: _301  and  _302
REMARK  128  A    between atoms: _305  and  _307
REMARK  129  A    between atoms: _307  and  _308
REMARK  130  A    between atoms: _307  and  _310
REMARK  131  A    between atoms: _310  and  _311
REMARK                            x       y       z     vdW  Elec       q    Type
REMARK                         _______ _______ _______ _____ _____    ______ ____
ROOT
ATOM      1  O   HOH     1      34.135  16.639  -2.656  0.00  0.00    +0.000 OA
ENDROOT
TORSDOF 0
REMARK  Name = ../refined-set-2016/1mai/1mai_pocket.pdb
REMARK  131 active torsions:
REMARK  status: ('A' for Active; 'I' for Inactive)
REMARK    1  A    between atoms: _1  and  _3
REMARK    2  A    between atoms: _3  and  _4
REMARK    3  A    between atoms: _3  and  _6
REMARK    4  A    between atoms: _6  and  _7
REMARK    5  A    between atoms: _7  and  _8
REMARK    6  A    between atoms: _8  and  _9
REMARK    7  A    between atoms: _9  and  _10
REMARK    8  A    between atoms: _14  and  _16
REMARK    9  A    between atoms: _16  and  _17
REMARK   10  A    between atoms: _16  and  _19
REMARK   11  A    between atoms: _22  and  _24
REMARK   12  A    between atoms: _24  and  _25
REMARK   13  A    between atoms: _24  and  _27
REMARK   14  A    between atoms: _27  and  _28
REMARK   15  A    between atoms: _28  and  _29
REMARK   16  A    between atoms: _29  and  _30
REMARK   17  A    between atoms: _30  and  _31
REMARK   18  A    between atoms: _35  and  _37
REMARK   19  A    between atoms: _37  and  _38
REMARK   20  A    between atoms: _37  and  _40
REMARK   21  A    between atoms: _40  and  _41
REMARK   22  A    between atoms: _43  and  _45
REMARK   23  A    between atoms: _45  and  _46
REMARK   24  A    between atoms: _45  and  _48
REMARK   25  A    between atoms: _48  and  _49
REMARK   26  A    between atoms: _51  and  _53
REMARK   27  A    between atoms: _53  and  _54
REMARK   28  A    between atoms: _53  and  _56
REMARK   29  A    between atoms: _56  and  _57
REMARK   30  A    between atoms: _67  and  _69
REMARK   31  A    between atoms: _69  and  _70
REMARK   32  A    between atoms: _69  and  _72
REMARK   33  A    between atoms: _72  and  _73
REMARK   34  A    between atoms: _73  and  _74
REMARK   35  A    between atoms: _74  and  _75
REMARK   36  A    between atoms: _84  and  _86
REMARK   37  A    between atoms: _86  and  _87
REMARK   38  A    between atoms: _86  and  _89
REMARK   39  A    between atoms: _89  and  _90
REMARK   40  A    between atoms: _90  and  _91
REMARK   41  A    between atoms: _94  and  _96
REMARK   42  A    between atoms: _96  and  _97
REMARK   43  A    between atoms: _96  and  _99
REMARK   44  A    between atoms: _99  and  _100
REMARK   45  A    between atoms: _100  and  _101
REMARK   46  A    between atoms: _101  and  _102
REMARK   47  A    between atoms: _111  and  _113
REMARK   48  A    between atoms: _113  and  _114
REMARK   49  A    between atoms: _113  and  _116
REMARK   50  A    between atoms: _116  and  _117
REMARK   51  A    between atoms: _122  and  _123
REMARK   52  A    between atoms: _125  and  _127
REMARK   53  A    between atoms: _127  and  _128
REMARK   54  A    between atoms: _127  and  _130
REMARK   55  A    between atoms: _130  and  _131
REMARK   56  A    between atoms: _131  and  _132
REMARK   57  A    between atoms: _137  and  _139
REMARK   58  A    between atoms: _139  and  _140
REMARK   59  A    between atoms: _139  and  _142
REMARK   60  A    between atoms: _142  and  _143
REMARK   61  A    between atoms: _143  and  _144
REMARK   62  A    between atoms: _147  and  _149
REMARK   63  A    between atoms: _149  and  _150
REMARK   64  A    between atoms: _149  and  _152
REMARK   65  A    between atoms: _152  and  _153
REMARK   66  A    between atoms: _155  and  _157
REMARK   67  A    between atoms: _157  and  _158
REMARK   68  A    between atoms: _157  and  _160
REMARK   69  A    between atoms: _160  and  _161
REMARK   70  A    between atoms: _161  and  _162
REMARK   71  A    between atoms: _162  and  _163
REMARK   72  A    between atoms: _172  and  _174
REMARK   73  A    between atoms: _174  and  _175
REMARK   74  A    between atoms: _174  and  _177
REMARK   75  A    between atoms: _177  and  _178
REMARK   76  A    between atoms: _178  and  _179
REMARK   77  A    between atoms: _179  and  _180
REMARK   78  A    between atoms: _180  and  _181
REMARK   79  A    between atoms: _185  and  _187
REMARK   80  A    between atoms: _187  and  _188
REMARK   81  A    between atoms: _187  and  _190
REMARK   82  A    between atoms: _193  and  _195
REMARK   83  A    between atoms: _195  and  _196
REMARK   84  A    between atoms: _195  and  _198
REMARK   85  A    between atoms: _198  and  _199
REMARK   86  A    between atoms: _199  and  _200
REMARK   87  A    between atoms: _202  and  _204
REMARK   88  A    between atoms: _204  and  _205
REMARK   89  A    between atoms: _204  and  _207
REMARK   90  A    between atoms: _207  and  _208
REMARK   91  A    between atoms: _208  and  _209
REMARK   92  A    between atoms: _209  and  _210
REMARK   93  A    between atoms: _219  and  _221
REMARK   94  A    between atoms: _221  and  _222
REMARK   95  A    between atoms: _221  and  _224
REMARK   96  A    between atoms: _224  and  _225
REMARK   97  A    between atoms: _227  and  _229
REMARK   98  A    between atoms: _229  and  _230
REMARK   99  A    between atoms: _229  and  _232
REMARK  100  A    between atoms: _232  and  _233
REMARK  101  A    between atoms: _235  and  _237
REMARK  102  A    between atoms: _237  and  _238
REMARK  103  A    between atoms: _237  and  _240
REMARK  104  A    between atoms: _240  and  _241
REMARK  105  A    between atoms: _241  and  _242
REMARK  106  A    between atoms: _247  and  _249
REMARK  107  A    between atoms: _249  and  _250
REMARK  108  A    between atoms: _249  and  _252
REMARK  109  A    between atoms: _252  and  _253
REMARK  110  A    between atoms: _259  and  _261
REMARK  111  A    between atoms: _261  and  _262
REMARK  112  A    between atoms: _261  and  _264
REMARK  113  A    between atoms: _264  and  _265
REMARK  114  A    between atoms: _265  and  _266
REMARK  115  A    between atoms: _266  and  _267
REMARK  116  A    between atoms: _276  and  _278
REMARK  117  A    between atoms: _278  and  _279
REMARK  118  A    between atoms: _278  and  _281
REMARK  119  A    between atoms: _281  and  _282
REMARK  120  A    between atoms: _287  and  _289
REMARK  121  A    between atoms: _289  and  _290
REMARK  122  A    between atoms: _289  and  _292
REMARK  123  A    between atoms: _292  and  _293
REMARK  124  A    between atoms: _296  and  _298
REMARK  125  A    between atoms: _298  and  _299
REMARK  126  A    between atoms: _298  and  _301
REMARK  127  A    between atoms: _301  and  _302
REMARK  128  A    between atoms: _305  and  _307
REMARK  129  A    between atoms: _307  and  _308
REMARK  130  A    between atoms: _307  and  _310
REMARK  131  A    between atoms: _310  and  _311
REMARK                            x       y       z     vdW  Elec       q    Type
REMARK                         _______ _______ _______ _____ _____    ______ ____
ROOT
ATOM      1  O   HOH     1      37.065  15.902  -3.169  0.00  0.00    +0.000 OA
ENDROOT
TORSDOF 0
REMARK  Name = ../refined-set-2016/1mai/1mai_pocket.pdb
REMARK  131 active torsions:
REMARK  status: ('A' for Active; 'I' for Inactive)
REMARK    1  A    between atoms: _1  and  _3
REMARK    2  A    between atoms: _3  and  _4
REMARK    3  A    between atoms: _3  and  _6
REMARK    4  A    between atoms: _6  and  _7
REMARK    5  A    between atoms: _7  and  _8
REMARK    6  A    between atoms: _8  and  _9
REMARK    7  A    between atoms: _9  and  _10
REMARK    8  A    between atoms: _14  and  _16
REMARK    9  A    between atoms: _16  and  _17
REMARK   10  A    between atoms: _16  and  _19
REMARK   11  A    between atoms: _22  and  _24
REMARK   12  A    between atoms: _24  and  _25
REMARK   13  A    between atoms: _24  and  _27
REMARK   14  A    between atoms: _27  and  _28
REMARK   15  A    between atoms: _28  and  _29
REMARK   16  A    between atoms: _29  and  _30
REMARK   17  A    between atoms: _30  and  _31
REMARK   18  A    between atoms: _35  and  _37
REMARK   19  A    between atoms: _37  and  _38
REMARK   20  A    between atoms: _37  and  _40
REMARK   21  A    between atoms: _40  and  _41
REMARK   22  A    between atoms: _43  and  _45
REMARK   23  A    between atoms: _45  and  _46
REMARK   24  A    between atoms: _45  and  _48
REMARK   25  A    between atoms: _48  and  _49
REMARK   26  A    between atoms: _51  and  _53
REMARK   27  A    between atoms: _53  and  _54
REMARK   28  A    between atoms: _53  and  _56
REMARK   29  A    between atoms: _56  and  _57
REMARK   30  A    between atoms: _67  and  _69
REMARK   31  A    between atoms: _69  and  _70
REMARK   32  A    between atoms: _69  and  _72
REMARK   33  A    between atoms: _72  and  _73
REMARK   34  A    between atoms: _73  and  _74
REMARK   35  A    between atoms: _74  and  _75
REMARK   36  A    between atoms: _84  and  _86
REMARK   37  A    between atoms: _86  and  _87
REMARK   38  A    between atoms: _86  and  _89
REMARK   39  A    between atoms: _89  and  _90
REMARK   40  A    between atoms: _90  and  _91
REMARK   41  A    between atoms: _94  and  _96
REMARK   42  A    between atoms: _96  and  _97
REMARK   43  A    between atoms: _96  and  _99
REMARK   44  A    between atoms: _99  and  _100
REMARK   45  A    between atoms: _100  and  _101
REMARK   46  A    between atoms: _101  and  _102
REMARK   47  A    between atoms: _111  and  _113
REMARK   48  A    between atoms: _113  and  _114
REMARK   49  A    between atoms: _113  and  _116
REMARK   50  A    between atoms: _116  and  _117
REMARK   51  A    between atoms: _122  and  _123
REMARK   52  A    between atoms: _125  and  _127
REMARK   53  A    between atoms: _127  and  _128
REMARK   54  A    between atoms: _127  and  _130
REMARK   55  A    between atoms: _130  and  _131
REMARK   56  A    between atoms: _131  and  _132
REMARK   57  A    between atoms: _137  and  _139
REMARK   58  A    between atoms: _139  and  _140
REMARK   59  A    between atoms: _139  and  _142
REMARK   60  A    between atoms: _142  and  _143
REMARK   61  A    between atoms: _143  and  _144
REMARK   62  A    between atoms: _147  and  _149
REMARK   63  A    between atoms: _149  and  _150
REMARK   64  A    between atoms: _149  and  _152
REMARK   65  A    between atoms: _152  and  _153
REMARK   66  A    between atoms: _155  and  _157
REMARK   67  A    between atoms: _157  and  _158
REMARK   68  A    between atoms: _157  and  _160
REMARK   69  A    between atoms: _160  and  _161
REMARK   70  A    between atoms: _161  and  _162
REMARK   71  A    between atoms: _162  and  _163
REMARK   72  A    between atoms: _172  and  _174
REMARK   73  A    between atoms: _174  and  _175
REMARK   74  A    between atoms: _174  and  _177
REMARK   75  A    between atoms: _177  and  _178
REMARK   76  A    between atoms: _178  and  _179
REMARK   77  A    between atoms: _179  and  _180
REMARK   78  A    between atoms: _180  and  _181
REMARK   79  A    between atoms: _185  and  _187
REMARK   80  A    between atoms: _187  and  _188
REMARK   81  A    between atoms: _187  and  _190
REMARK   82  A    between atoms: _193  and  _195
REMARK   83  A    between atoms: _195  and  _196
REMARK   84  A    between atoms: _195  and  _198
REMARK   85  A    between atoms: _198  and  _199
REMARK   86  A    between atoms: _199  and  _200
REMARK   87  A    between atoms: _202  and  _204
REMARK   88  A    between atoms: _204  and  _205
REMARK   89  A    between atoms: _204  and  _207
REMARK   90  A    between atoms: _207  and  _208
REMARK   91  A    between atoms: _208  and  _209
REMARK   92  A    between atoms: _209  and  _210
REMARK   93  A    between atoms: _219  and  _221
REMARK   94  A    between atoms: _221  and  _222
REMARK   95  A    between atoms: _221  and  _224
REMARK   96  A    between atoms: _224  and  _225
REMARK   97  A    between atoms: _227  and  _229
REMARK   98  A    between atoms: _229  and  _230
REMARK   99  A    between atoms: _229  and  _232
REMARK  100  A    between atoms: _232  and  _233
REMARK  101  A    between atoms: _235  and  _237
REMARK  102  A    between atoms: _237  and  _238
REMARK  103  A    between atoms: _237  and  _240
REMARK  104  A    between atoms: _240  and  _241
REMARK  105  A    between atoms: _241  and  _242
REMARK  106  A    between atoms: _247  and  _249
REMARK  107  A    between atoms: _249  and  _250
REMARK  108  A    between atoms: _249  and  _252
REMARK  109  A    between atoms: _252  and  _253
REMARK  110  A    between atoms: _259  and  _261
REMARK  111  A    between atoms: _261  and  _262
REMARK  112  A    between atoms: _261  and  _264
REMARK  113  A    between atoms: _264  and  _265
REMARK  114  A    between atoms: _265  and  _266
REMARK  115  A    between atoms: _266  and  _267
REMARK  116  A    between atoms: _276  and  _278
REMARK  117  A    between atoms: _278  and  _279
REMARK  118  A    between atoms: _278  and  _281
REMARK  119  A    between atoms: _281  and  _282
REMARK  120  A    between atoms: _287  and  _289
REMARK  121  A    between atoms: _289  and  _290
REMARK  122  A    between atoms: _289  and  _292
REMARK  123  A    between atoms: _292  and  _293
REMARK  124  A    between atoms: _296  and  _298
REMARK  125  A    between atoms: _298  and  _299
REMARK  126  A    between atoms: _298  and  _301
REMARK  127  A    between atoms: _301  and  _302
REMARK  128  A    between atoms: _305  and  _307
REMARK  129  A    between atoms: _307  and  _308
REMARK  130  A    between atoms: _307  and  _310
REMARK  131  A    between atoms: _310  and  _311
REMARK                            x       y       z     vdW  Elec       q    Type
REMARK                         _______ _______ _______ _____ _____    ______ ____
ROOT
ATOM      1  O   HOH     1      35.508  19.113  -2.192  0.00  0.00    +0.000 OA
ENDROOT
TORSDOF 0
REMARK  Name = ../refined-set-2016/1mai/1mai_pocket.pdb
REMARK  131 active torsions:
REMARK  status: ('A' for Active; 'I' for Inactive)
REMARK    1  A    between atoms: _1  and  _3
REMARK    2  A    between atoms: _3  and  _4
REMARK    3  A    between atoms: _3  and  _6
REMARK    4  A    between atoms: _6  and  _7
REMARK    5  A    between atoms: _7  and  _8
REMARK    6  A    between atoms: _8  and  _9
REMARK    7  A    between atoms: _9  and  _10
REMARK    8  A    between atoms: _14  and  _16
REMARK    9  A    between atoms: _16  and  _17
REMARK   10  A    between atoms: _16  and  _19
REMARK   11  A    between atoms: _22  and  _24
REMARK   12  A    between atoms: _24  and  _25
REMARK   13  A    between atoms: _24  and  _27
REMARK   14  A    between atoms: _27  and  _28
REMARK   15  A    between atoms: _28  and  _29
REMARK   16  A    between atoms: _29  and  _30
REMARK   17  A    between atoms: _30  and  _31
REMARK   18  A    between atoms: _35  and  _37
REMARK   19  A    between atoms: _37  and  _38
REMARK   20  A    between atoms: _37  and  _40
REMARK   21  A    between atoms: _40  and  _41
REMARK   22  A    between atoms: _43  and  _45
REMARK   23  A    between atoms: _45  and  _46
REMARK   24  A    between atoms: _45  and  _48
REMARK   25  A    between atoms: _48  and  _49
REMARK   26  A    between atoms: _51  and  _53
REMARK   27  A    between atoms: _53  and  _54
REMARK   28  A    between atoms: _53  and  _56
REMARK   29  A    between atoms: _56  and  _57
REMARK   30  A    between atoms: _67  and  _69
REMARK   31  A    between atoms: _69  and  _70
REMARK   32  A    between atoms: _69  and  _72
REMARK   33  A    between atoms: _72  and  _73
REMARK   34  A    between atoms: _73  and  _74
REMARK   35  A    between atoms: _74  and  _75
REMARK   36  A    between atoms: _84  and  _86
REMARK   37  A    between atoms: _86  and  _87
REMARK   38  A    between atoms: _86  and  _89
REMARK   39  A    between atoms: _89  and  _90
REMARK   40  A    between atoms: _90  and  _91
REMARK   41  A    between atoms: _94  and  _96
REMARK   42  A    between atoms: _96  and  _97
REMARK   43  A    between atoms: _96  and  _99
REMARK   44  A    between atoms: _99  and  _100
REMARK   45  A    between atoms: _100  and  _101
REMARK   46  A    between atoms: _101  and  _102
REMARK   47  A    between atoms: _111  and  _113
REMARK   48  A    between atoms: _113  and  _114
REMARK   49  A    between atoms: _113  and  _116
REMARK   50  A    between atoms: _116  and  _117
REMARK   51  A    between atoms: _122  and  _123
REMARK   52  A    between atoms: _125  and  _127
REMARK   53  A    between atoms: _127  and  _128
REMARK   54  A    between atoms: _127  and  _130
REMARK   55  A    between atoms: _130  and  _131
REMARK   56  A    between atoms: _131  and  _132
REMARK   57  A    between atoms: _137  and  _139
REMARK   58  A    between atoms: _139  and  _140
REMARK   59  A    between atoms: _139  and  _142
REMARK   60  A    between atoms: _142  and  _143
REMARK   61  A    between atoms: _143  and  _144
REMARK   62  A    between atoms: _147  and  _149
REMARK   63  A    between atoms: _149  and  _150
REMARK   64  A    between atoms: _149  and  _152
REMARK   65  A    between atoms: _152  and  _153
REMARK   66  A    between atoms: _155  and  _157
REMARK   67  A    between atoms: _157  and  _158
REMARK   68  A    between atoms: _157  and  _160
REMARK   69  A    between atoms: _160  and  _161
REMARK   70  A    between atoms: _161  and  _162
REMARK   71  A    between atoms: _162  and  _163
REMARK   72  A    between atoms: _172  and  _174
REMARK   73  A    between atoms: _174  and  _175
REMARK   74  A    between atoms: _174  and  _177
REMARK   75  A    between atoms: _177  and  _178
REMARK   76  A    between atoms: _178  and  _179
REMARK   77  A    between atoms: _179  and  _180
REMARK   78  A    between atoms: _180  and  _181
REMARK   79  A    between atoms: _185  and  _187
REMARK   80  A    between atoms: _187  and  _188
REMARK   81  A    between atoms: _187  and  _190
REMARK   82  A    between atoms: _193  and  _195
REMARK   83  A    between atoms: _195  and  _196
REMARK   84  A    between atoms: _195  and  _198
REMARK   85  A    between atoms: _198  and  _199
REMARK   86  A    between atoms: _199  and  _200
REMARK   87  A    between atoms: _202  and  _204
REMARK   88  A    between atoms: _204  and  _205
REMARK   89  A    between atoms: _204  and  _207
REMARK   90  A    between atoms: _207  and  _208
REMARK   91  A    between atoms: _208  and  _209
REMARK   92  A    between atoms: _209  and  _210
REMARK   93  A    between atoms: _219  and  _221
REMARK   94  A    between atoms: _221  and  _222
REMARK   95  A    between atoms: _221  and  _224
REMARK   96  A    between atoms: _224  and  _225
REMARK   97  A    between atoms: _227  and  _229
REMARK   98  A    between atoms: _229  and  _230
REMARK   99  A    between atoms: _229  and  _232
REMARK  100  A    between atoms: _232  and  _233
REMARK  101  A    between atoms: _235  and  _237
REMARK  102  A    between atoms: _237  and  _238
REMARK  103  A    between atoms: _237  and  _240
REMARK  104  A    between atoms: _240  and  _241
REMARK  105  A    between atoms: _241  and  _242
REMARK  106  A    between atoms: _247  and  _249
REMARK  107  A    between atoms: _249  and  _250
REMARK  108  A    between atoms: _249  and  _252
REMARK  109  A    between atoms: _252  and  _253
REMARK  110  A    between atoms: _259  and  _261
REMARK  111  A    between atoms: _261  and  _262
REMARK  112  A    between atoms: _261  and  _264
REMARK  113  A    between atoms: _264  and  _265
REMARK  114  A    between atoms: _265  and  _266
REMARK  115  A    between atoms: _266  and  _267
REMARK  116  A    between atoms: _276  and  _278
REMARK  117  A    between atoms: _278  and  _279
REMARK  118  A    between atoms: _278  and  _281
REMARK  119  A    between atoms: _281  and  _282
REMARK  120  A    between atoms: _287  and  _289
REMARK  121  A    between atoms: _289  and  _290
REMARK  122  A    between atoms: _289  and  _292
REMARK  123  A    between atoms: _292  and  _293
REMARK  124  A    between atoms: _296  and  _298
REMARK  125  A    between atoms: _298  and  _299
REMARK  126  A    between atoms: _298  and  _301
REMARK  127  A    between atoms: _301  and  _302
REMARK  128  A    between atoms: _305  and  _307
REMARK  129  A    between atoms: _307  and  _308
REMARK  130  A    between atoms: _307  and  _310
REMARK  131  A    between atoms: _310  and  _311
REMARK                            x       y       z     vdW  Elec       q    Type
REMARK                         _______ _______ _______ _____ _____    ______ ____
ROOT
ATOM      1  O   HOH     1      30.538  25.675   1.615  0.00  0.00    +0.000 OA
ENDROOT
TORSDOF 0
REMARK  Name = ../refined-set-2016/1mai/1mai_pocket.pdb
REMARK  131 active torsions:
REMARK  status: ('A' for Active; 'I' for Inactive)
REMARK    1  A    between atoms: _1  and  _3
REMARK    2  A    between atoms: _3  and  _4
REMARK    3  A    between atoms: _3  and  _6
REMARK    4  A    between atoms: _6  and  _7
REMARK    5  A    between atoms: _7  and  _8
REMARK    6  A    between atoms: _8  and  _9
REMARK    7  A    between atoms: _9  and  _10
REMARK    8  A    between atoms: _14  and  _16
REMARK    9  A    between atoms: _16  and  _17
REMARK   10  A    between atoms: _16  and  _19
REMARK   11  A    between atoms: _22  and  _24
REMARK   12  A    between atoms: _24  and  _25
REMARK   13  A    between atoms: _24  and  _27
REMARK   14  A    between atoms: _27  and  _28
REMARK   15  A    between atoms: _28  and  _29
REMARK   16  A    between atoms: _29  and  _30
REMARK   17  A    between atoms: _30  and  _31
REMARK   18  A    between atoms: _35  and  _37
REMARK   19  A    between atoms: _37  and  _38
REMARK   20  A    between atoms: _37  and  _40
REMARK   21  A    between atoms: _40  and  _41
REMARK   22  A    between atoms: _43  and  _45
REMARK   23  A    between atoms: _45  and  _46
REMARK   24  A    between atoms: _45  and  _48
REMARK   25  A    between atoms: _48  and  _49
REMARK   26  A    between atoms: _51  and  _53
REMARK   27  A    between atoms: _53  and  _54
REMARK   28  A    between atoms: _53  and  _56
REMARK   29  A    between atoms: _56  and  _57
REMARK   30  A    between atoms: _67  and  _69
REMARK   31  A    between atoms: _69  and  _70
REMARK   32  A    between atoms: _69  and  _72
REMARK   33  A    between atoms: _72  and  _73
REMARK   34  A    between atoms: _73  and  _74
REMARK   35  A    between atoms: _74  and  _75
REMARK   36  A    between atoms: _84  and  _86
REMARK   37  A    between atoms: _86  and  _87
REMARK   38  A    between atoms: _86  and  _89
REMARK   39  A    between atoms: _89  and  _90
REMARK   40  A    between atoms: _90  and  _91
REMARK   41  A    between atoms: _94  and  _96
REMARK   42  A    between atoms: _96  and  _97
REMARK   43  A    between atoms: _96  and  _99
REMARK   44  A    between atoms: _99  and  _100
REMARK   45  A    between atoms: _100  and  _101
REMARK   46  A    between atoms: _101  and  _102
REMARK   47  A    between atoms: _111  and  _113
REMARK   48  A    between atoms: _113  and  _114
REMARK   49  A    between atoms: _113  and  _116
REMARK   50  A    between atoms: _116  and  _117
REMARK   51  A    between atoms: _122  and  _123
REMARK   52  A    between atoms: _125  and  _127
REMARK   53  A    between atoms: _127  and  _128
REMARK   54  A    between atoms: _127  and  _130
REMARK   55  A    between atoms: _130  and  _131
REMARK   56  A    between atoms: _131  and  _132
REMARK   57  A    between atoms: _137  and  _139
REMARK   58  A    between atoms: _139  and  _140
REMARK   59  A    between atoms: _139  and  _142
REMARK   60  A    between atoms: _142  and  _143
REMARK   61  A    between atoms: _143  and  _144
REMARK   62  A    between atoms: _147  and  _149
REMARK   63  A    between atoms: _149  and  _150
REMARK   64  A    between atoms: _149  and  _152
REMARK   65  A    between atoms: _152  and  _153
REMARK   66  A    between atoms: _155  and  _157
REMARK   67  A    between atoms: _157  and  _158
REMARK   68  A    between atoms: _157  and  _160
REMARK   69  A    between atoms: _160  and  _161
REMARK   70  A    between atoms: _161  and  _162
REMARK   71  A    between atoms: _162  and  _163
REMARK   72  A    between atoms: _172  and  _174
REMARK   73  A    between atoms: _174  and  _175
REMARK   74  A    between atoms: _174  and  _177
REMARK   75  A    between atoms: _177  and  _178
REMARK   76  A    between atoms: _178  and  _179
REMARK   77  A    between atoms: _179  and  _180
REMARK   78  A    between atoms: _180  and  _181
REMARK   79  A    between atoms: _185  and  _187
REMARK   80  A    between atoms: _187  and  _188
REMARK   81  A    between atoms: _187  and  _190
REMARK   82  A    between atoms: _193  and  _195
REMARK   83  A    between atoms: _195  and  _196
REMARK   84  A    between atoms: _195  and  _198
REMARK   85  A    between atoms: _198  and  _199
REMARK   86  A    between atoms: _199  and  _200
REMARK   87  A    between atoms: _202  and  _204
REMARK   88  A    between atoms: _204  and  _205
REMARK   89  A    between atoms: _204  and  _207
REMARK   90  A    between atoms: _207  and  _208
REMARK   91  A    between atoms: _208  and  _209
REMARK   92  A    between atoms: _209  and  _210
REMARK   93  A    between atoms: _219  and  _221
REMARK   94  A    between atoms: _221  and  _222
REMARK   95  A    between atoms: _221  and  _224
REMARK   96  A    between atoms: _224  and  _225
REMARK   97  A    between atoms: _227  and  _229
REMARK   98  A    between atoms: _229  and  _230
REMARK   99  A    between atoms: _229  and  _232
REMARK  100  A    between atoms: _232  and  _233
REMARK  101  A    between atoms: _235  and  _237
REMARK  102  A    between atoms: _237  and  _238
REMARK  103  A    between atoms: _237  and  _240
REMARK  104  A    between atoms: _240  and  _241
REMARK  105  A    between atoms: _241  and  _242
REMARK  106  A    between atoms: _247  and  _249
REMARK  107  A    between atoms: _249  and  _250
REMARK  108  A    between atoms: _249  and  _252
REMARK  109  A    between atoms: _252  and  _253
REMARK  110  A    between atoms: _259  and  _261
REMARK  111  A    between atoms: _261  and  _262
REMARK  112  A    between atoms: _261  and  _264
REMARK  113  A    between atoms: _264  and  _265
REMARK  114  A    between atoms: _265  and  _266
REMARK  115  A    between atoms: _266  and  _267
REMARK  116  A    between atoms: _276  and  _278
REMARK  117  A    between atoms: _278  and  _279
REMARK  118  A    between atoms: _278  and  _281
REMARK  119  A    between atoms: _281  and  _282
REMARK  120  A    between atoms: _287  and  _289
REMARK  121  A    between atoms: _289  and  _290
REMARK  122  A    between atoms: _289  and  _292
REMARK  123  A    between atoms: _292  and  _293
REMARK  124  A    between atoms: _296  and  _298
REMARK  125  A    between atoms: _298  and  _299
REMARK  126  A    between atoms: _298  and  _301
REMARK  127  A    between atoms: _301  and  _302
REMARK  128  A    between atoms: _305  and  _307
REMARK  129  A    between atoms: _307  and  _308
REMARK  130  A    between atoms: _307  and  _310
REMARK  131  A    between atoms: _310  and  _311
REMARK                            x       y       z     vdW  Elec       q    Type
REMARK                         _______ _______ _______ _____ _____    ______ ____
ROOT
ATOM      1  O   HOH     1      31.311  21.504  13.193  0.00  0.00    +0.000 OA
ENDROOT
TORSDOF 0
REMARK  Name = ../refined-set-2016/1mai/1mai_pocket.pdb
REMARK  131 active torsions:
REMARK  status: ('A' for Active; 'I' for Inactive)
REMARK    1  A    between atoms: _1  and  _3
REMARK    2  A    between atoms: _3  and  _4
REMARK    3  A    between atoms: _3  and  _6
REMARK    4  A    between atoms: _6  and  _7
REMARK    5  A    between atoms: _7  and  _8
REMARK    6  A    between atoms: _8  and  _9
REMARK    7  A    between atoms: _9  and  _10
REMARK    8  A    between atoms: _14  and  _16
REMARK    9  A    between atoms: _16  and  _17
REMARK   10  A    between atoms: _16  and  _19
REMARK   11  A    between atoms: _22  and  _24
REMARK   12  A    between atoms: _24  and  _25
REMARK   13  A    between atoms: _24  and  _27
REMARK   14  A    between atoms: _27  and  _28
REMARK   15  A    between atoms: _28  and  _29
REMARK   16  A    between atoms: _29  and  _30
REMARK   17  A    between atoms: _30  and  _31
REMARK   18  A    between atoms: _35  and  _37
REMARK   19  A    between atoms: _37  and  _38
REMARK   20  A    between atoms: _37  and  _40
REMARK   21  A    between atoms: _40  and  _41
REMARK   22  A    between atoms: _43  and  _45
REMARK   23  A    between atoms: _45  and  _46
REMARK   24  A    between atoms: _45  and  _48
REMARK   25  A    between atoms: _48  and  _49
REMARK   26  A    between atoms: _51  and  _53
REMARK   27  A    between atoms: _53  and  _54
REMARK   28  A    between atoms: _53  and  _56
REMARK   29  A    between atoms: _56  and  _57
REMARK   30  A    between atoms: _67  and  _69
REMARK   31  A    between atoms: _69  and  _70
REMARK   32  A    between atoms: _69  and  _72
REMARK   33  A    between atoms: _72  and  _73
REMARK   34  A    between atoms: _73  and  _74
REMARK   35  A    between atoms: _74  and  _75
REMARK   36  A    between atoms: _84  and  _86
REMARK   37  A    between atoms: _86  and  _87
REMARK   38  A    between atoms: _86  and  _89
REMARK   39  A    between atoms: _89  and  _90
REMARK   40  A    between atoms: _90  and  _91
REMARK   41  A    between atoms: _94  and  _96
REMARK   42  A    between atoms: _96  and  _97
REMARK   43  A    between atoms: _96  and  _99
REMARK   44  A    between atoms: _99  and  _100
REMARK   45  A    between atoms: _100  and  _101
REMARK   46  A    between atoms: _101  and  _102
REMARK   47  A    between atoms: _111  and  _113
REMARK   48  A    between atoms: _113  and  _114
REMARK   49  A    between atoms: _113  and  _116
REMARK   50  A    between atoms: _116  and  _117
REMARK   51  A    between atoms: _122  and  _123
REMARK   52  A    between atoms: _125  and  _127
REMARK   53  A    between atoms: _127  and  _128
REMARK   54  A    between atoms: _127  and  _130
REMARK   55  A    between atoms: _130  and  _131
REMARK   56  A    between atoms: _131  and  _132
REMARK   57  A    between atoms: _137  and  _139
REMARK   58  A    between atoms: _139  and  _140
REMARK   59  A    between atoms: _139  and  _142
REMARK   60  A    between atoms: _142  and  _143
REMARK   61  A    between atoms: _143  and  _144
REMARK   62  A    between atoms: _147  and  _149
REMARK   63  A    between atoms: _149  and  _150
REMARK   64  A    between atoms: _149  and  _152
REMARK   65  A    between atoms: _152  and  _153
REMARK   66  A    between atoms: _155  and  _157
REMARK   67  A    between atoms: _157  and  _158
REMARK   68  A    between atoms: _157  and  _160
REMARK   69  A    between atoms: _160  and  _161
REMARK   70  A    between atoms: _161  and  _162
REMARK   71  A    between atoms: _162  and  _163
REMARK   72  A    between atoms: _172  and  _174
REMARK   73  A    between atoms: _174  and  _175
REMARK   74  A    between atoms: _174  and  _177
REMARK   75  A    between atoms: _177  and  _178
REMARK   76  A    between atoms: _178  and  _179
REMARK   77  A    between atoms: _179  and  _180
REMARK   78  A    between atoms: _180  and  _181
REMARK   79  A    between atoms: _185  and  _187
REMARK   80  A    between atoms: _187  and  _188
REMARK   81  A    between atoms: _187  and  _190
REMARK   82  A    between atoms: _193  and  _195
REMARK   83  A    between atoms: _195  and  _196
REMARK   84  A    between atoms: _195  and  _198
REMARK   85  A    between atoms: _198  and  _199
REMARK   86  A    between atoms: _199  and  _200
REMARK   87  A    between atoms: _202  and  _204
REMARK   88  A    between atoms: _204  and  _205
REMARK   89  A    between atoms: _204  and  _207
REMARK   90  A    between atoms: _207  and  _208
REMARK   91  A    between atoms: _208  and  _209
REMARK   92  A    between atoms: _209  and  _210
REMARK   93  A    between atoms: _219  and  _221
REMARK   94  A    between atoms: _221  and  _222
REMARK   95  A    between atoms: _221  and  _224
REMARK   96  A    between atoms: _224  and  _225
REMARK   97  A    between atoms: _227  and  _229
REMARK   98  A    between atoms: _229  and  _230
REMARK   99  A    between atoms: _229  and  _232
REMARK  100  A    between atoms: _232  and  _233
REMARK  101  A    between atoms: _235  and  _237
REMARK  102  A    between atoms: _237  and  _238
REMARK  103  A    between atoms: _237  and  _240
REMARK  104  A    between atoms: _240  and  _241
REMARK  105  A    between atoms: _241  and  _242
REMARK  106  A    between atoms: _247  and  _249
REMARK  107  A    between atoms: _249  and  _250
REMARK  108  A    between atoms: _249  and  _252
REMARK  109  A    between atoms: _252  and  _253
REMARK  110  A    between atoms: _259  and  _261
REMARK  111  A    between atoms: _261  and  _262
REMARK  112  A    between atoms: _261  and  _264
REMARK  113  A    between atoms: _264  and  _265
REMARK  114  A    between atoms: _265  and  _266
REMARK  115  A    between atoms: _266  and  _267
REMARK  116  A    between atoms: _276  and  _278
REMARK  117  A    between atoms: _278  and  _279
REMARK  118  A    between atoms: _278  and  _281
REMARK  119  A    between atoms: _281  and  _282
REMARK  120  A    between atoms: _287  and  _289
REMARK  121  A    between atoms: _289  and  _290
REMARK  122  A    between atoms: _289  and  _292
REMARK  123  A    between atoms: _292  and  _293
REMARK  124  A    between atoms: _296  and  _298
REMARK  125  A    between atoms: _298  and  _299
REMARK  126  A    between atoms: _298  and  _301
REMARK  127  A    between atoms: _301  and  _302
REMARK  128  A    between atoms: _305  and  _307
REMARK  129  A    between atoms: _307  and  _308
REMARK  130  A    between atoms: _307  and  _310
REMARK  131  A    between atoms: _310  and  _311
REMARK                            x       y       z     vdW  Elec       q    Type
REMARK                         _______ _______ _______ _____ _____    ______ ____
ROOT
ATOM      1  O   HOH     1      29.220  10.570  11.261  0.00  0.00    +0.000 OA
ENDROOT
TORSDOF 0
REMARK  Name = ../refined-set-2016/1mai/1mai_pocket.pdb
REMARK  131 active torsions:
REMARK  status: ('A' for Active; 'I' for Inactive)
REMARK    1  A    between atoms: _1  and  _3
REMARK    2  A    between atoms: _3  and  _4
REMARK    3  A    between atoms: _3  and  _6
REMARK    4  A    between atoms: _6  and  _7
REMARK    5  A    between atoms: _7  and  _8
REMARK    6  A    between atoms: _8  and  _9
REMARK    7  A    between atoms: _9  and  _10
REMARK    8  A    between atoms: _14  and  _16
REMARK    9  A    between atoms: _16  and  _17
REMARK   10  A    between atoms: _16  and  _19
REMARK   11  A    between atoms: _22  and  _24
REMARK   12  A    between atoms: _24  and  _25
REMARK   13  A    between atoms: _24  and  _27
REMARK   14  A    between atoms: _27  and  _28
REMARK   15  A    between atoms: _28  and  _29
REMARK   16  A    between atoms: _29  and  _30
REMARK   17  A    between atoms: _30  and  _31
REMARK   18  A    between atoms: _35  and  _37
REMARK   19  A    between atoms: _37  and  _38
REMARK   20  A    between atoms: _37  and  _40
REMARK   21  A    between atoms: _40  and  _41
REMARK   22  A    between atoms: _43  and  _45
REMARK   23  A    between atoms: _45  and  _46
REMARK   24  A    between atoms: _45  and  _48
REMARK   25  A    between atoms: _48  and  _49
REMARK   26  A    between atoms: _51  and  _53
REMARK   27  A    between atoms: _53  and  _54
REMARK   28  A    between atoms: _53  and  _56
REMARK   29  A    between atoms: _56  and  _57
REMARK   30  A    between atoms: _67  and  _69
REMARK   31  A    between atoms: _69  and  _70
REMARK   32  A    between atoms: _69  and  _72
REMARK   33  A    between atoms: _72  and  _73
REMARK   34  A    between atoms: _73  and  _74
REMARK   35  A    between atoms: _74  and  _75
REMARK   36  A    between atoms: _84  and  _86
REMARK   37  A    between atoms: _86  and  _87
REMARK   38  A    between atoms: _86  and  _89
REMARK   39  A    between atoms: _89  and  _90
REMARK   40  A    between atoms: _90  and  _91
REMARK   41  A    between atoms: _94  and  _96
REMARK   42  A    between atoms: _96  and  _97
REMARK   43  A    between atoms: _96  and  _99
REMARK   44  A    between atoms: _99  and  _100
REMARK   45  A    between atoms: _100  and  _101
REMARK   46  A    between atoms: _101  and  _102
REMARK   47  A    between atoms: _111  and  _113
REMARK   48  A    between atoms: _113  and  _114
REMARK   49  A    between atoms: _113  and  _116
REMARK   50  A    between atoms: _116  and  _117
REMARK   51  A    between atoms: _122  and  _123
REMARK   52  A    between atoms: _125  and  _127
REMARK   53  A    between atoms: _127  and  _128
REMARK   54  A    between atoms: _127  and  _130
REMARK   55  A    between atoms: _130  and  _131
REMARK   56  A    between atoms: _131  and  _132
REMARK   57  A    between atoms: _137  and  _139
REMARK   58  A    between atoms: _139  and  _140
REMARK   59  A    between atoms: _139  and  _142
REMARK   60  A    between atoms: _142  and  _143
REMARK   61  A    between atoms: _143  and  _144
REMARK   62  A    between atoms: _147  and  _149
REMARK   63  A    between atoms: _149  and  _150
REMARK   64  A    between atoms: _149  and  _152
REMARK   65  A    between atoms: _152  and  _153
REMARK   66  A    between atoms: _155  and  _157
REMARK   67  A    between atoms: _157  and  _158
REMARK   68  A    between atoms: _157  and  _160
REMARK   69  A    between atoms: _160  and  _161
REMARK   70  A    between atoms: _161  and  _162
REMARK   71  A    between atoms: _162  and  _163
REMARK   72  A    between atoms: _172  and  _174
REMARK   73  A    between atoms: _174  and  _175
REMARK   74  A    between atoms: _174  and  _177
REMARK   75  A    between atoms: _177  and  _178
REMARK   76  A    between atoms: _178  and  _179
REMARK   77  A    between atoms: _179  and  _180
REMARK   78  A    between atoms: _180  and  _181
REMARK   79  A    between atoms: _185  and  _187
REMARK   80  A    between atoms: _187  and  _188
REMARK   81  A    between atoms: _187  and  _190
REMARK   82  A    between atoms: _193  and  _195
REMARK   83  A    between atoms: _195  and  _196
REMARK   84  A    between atoms: _195  and  _198
REMARK   85  A    between atoms: _198  and  _199
REMARK   86  A    between atoms: _199  and  _200
REMARK   87  A    between atoms: _202  and  _204
REMARK   88  A    between atoms: _204  and  _205
REMARK   89  A    between atoms: _204  and  _207
REMARK   90  A    between atoms: _207  and  _208
REMARK   91  A    between atoms: _208  and  _209
REMARK   92  A    between atoms: _209  and  _210
REMARK   93  A    between atoms: _219  and  _221
REMARK   94  A    between atoms: _221  and  _222
REMARK   95  A    between atoms: _221  and  _224
REMARK   96  A    between atoms: _224  and  _225
REMARK   97  A    between atoms: _227  and  _229
REMARK   98  A    between atoms: _229  and  _230
REMARK   99  A    between atoms: _229  and  _232
REMARK  100  A    between atoms: _232  and  _233
REMARK  101  A    between atoms: _235  and  _237
REMARK  102  A    between atoms: _237  and  _238
REMARK  103  A    between atoms: _237  and  _240
REMARK  104  A    between atoms: _240  and  _241
REMARK  105  A    between atoms: _241  and  _242
REMARK  106  A    between atoms: _247  and  _249
REMARK  107  A    between atoms: _249  and  _250
REMARK  108  A    between atoms: _249  and  _252
REMARK  109  A    between atoms: _252  and  _253
REMARK  110  A    between atoms: _259  and  _261
REMARK  111  A    between atoms: _261  and  _262
REMARK  112  A    between atoms: _261  and  _264
REMARK  113  A    between atoms: _264  and  _265
REMARK  114  A    between atoms: _265  and  _266
REMARK  115  A    between atoms: _266  and  _267
REMARK  116  A    between atoms: _276  and  _278
REMARK  117  A    between atoms: _278  and  _279
REMARK  118  A    between atoms: _278  and  _281
REMARK  119  A    between atoms: _281  and  _282
REMARK  120  A    between atoms: _287  and  _289
REMARK  121  A    between atoms: _289  and  _290
REMARK  122  A    between atoms: _289  and  _292
REMARK  123  A    between atoms: _292  and  _293
REMARK  124  A    between atoms: _296  and  _298
REMARK  125  A    between atoms: _298  and  _299
REMARK  126  A    between atoms: _298  and  _301
REMARK  127  A    between atoms: _301  and  _302
REMARK  128  A    between atoms: _305  and  _307
REMARK  129  A    between atoms: _307  and  _308
REMARK  130  A    between atoms: _307  and  _310
REMARK  131  A    between atoms: _310  and  _311
REMARK                            x       y       z     vdW  Elec       q    Type
REMARK                         _______ _______ _______ _____ _____    ______ ____
ROOT
ATOM      1  O   HOH     1      34.526  23.282   2.670  0.00  0.00    +0.000 OA
ENDROOT
TORSDOF 0
REMARK  Name = ../refined-set-2016/1mai/1mai_pocket.pdb
REMARK  131 active torsions:
REMARK  status: ('A' for Active; 'I' for Inactive)
REMARK    1  A    between atoms: _1  and  _3
REMARK    2  A    between atoms: _3  and  _4
REMARK    3  A    between atoms: _3  and  _6
REMARK    4  A    between atoms: _6  and  _7
REMARK    5  A    between atoms: _7  and  _8
REMARK    6  A    between atoms: _8  and  _9
REMARK    7  A    between atoms: _9  and  _10
REMARK    8  A    between atoms: _14  and  _16
REMARK    9  A    between atoms: _16  and  _17
REMARK   10  A    between atoms: _16  and  _19
REMARK   11  A    between atoms: _22  and  _24
REMARK   12  A    between atoms: _24  and  _25
REMARK   13  A    between atoms: _24  and  _27
REMARK   14  A    between atoms: _27  and  _28
REMARK   15  A    between atoms: _28  and  _29
REMARK   16  A    between atoms: _29  and  _30
REMARK   17  A    between atoms: _30  and  _31
REMARK   18  A    between atoms: _35  and  _37
REMARK   19  A    between atoms: _37  and  _38
REMARK   20  A    between atoms: _37  and  _40
REMARK   21  A    between atoms: _40  and  _41
REMARK   22  A    between atoms: _43  and  _45
REMARK   23  A    between atoms: _45  and  _46
REMARK   24  A    between atoms: _45  and  _48
REMARK   25  A    between atoms: _48  and  _49
REMARK   26  A    between atoms: _51  and  _53
REMARK   27  A    between atoms: _53  and  _54
REMARK   28  A    between atoms: _53  and  _56
REMARK   29  A    between atoms: _56  and  _57
REMARK   30  A    between atoms: _67  and  _69
REMARK   31  A    between atoms: _69  and  _70
REMARK   32  A    between atoms: _69  and  _72
REMARK   33  A    between atoms: _72  and  _73
REMARK   34  A    between atoms: _73  and  _74
REMARK   35  A    between atoms: _74  and  _75
REMARK   36  A    between atoms: _84  and  _86
REMARK   37  A    between atoms: _86  and  _87
REMARK   38  A    between atoms: _86  and  _89
REMARK   39  A    between atoms: _89  and  _90
REMARK   40  A    between atoms: _90  and  _91
REMARK   41  A    between atoms: _94  and  _96
REMARK   42  A    between atoms: _96  and  _97
REMARK   43  A    between atoms: _96  and  _99
REMARK   44  A    between atoms: _99  and  _100
REMARK   45  A    between atoms: _100  and  _101
REMARK   46  A    between atoms: _101  and  _102
REMARK   47  A    between atoms: _111  and  _113
REMARK   48  A    between atoms: _113  and  _114
REMARK   49  A    between atoms: _113  and  _116
REMARK   50  A    between atoms: _116  and  _117
REMARK   51  A    between atoms: _122  and  _123
REMARK   52  A    between atoms: _125  and  _127
REMARK   53  A    between atoms: _127  and  _128
REMARK   54  A    between atoms: _127  and  _130
REMARK   55  A    between atoms: _130  and  _131
REMARK   56  A    between atoms: _131  and  _132
REMARK   57  A    between atoms: _137  and  _139
REMARK   58  A    between atoms: _139  and  _140
REMARK   59  A    between atoms: _139  and  _142
REMARK   60  A    between atoms: _142  and  _143
REMARK   61  A    between atoms: _143  and  _144
REMARK   62  A    between atoms: _147  and  _149
REMARK   63  A    between atoms: _149  and  _150
REMARK   64  A    between atoms: _149  and  _152
REMARK   65  A    between atoms: _152  and  _153
REMARK   66  A    between atoms: _155  and  _157
REMARK   67  A    between atoms: _157  and  _158
REMARK   68  A    between atoms: _157  and  _160
REMARK   69  A    between atoms: _160  and  _161
REMARK   70  A    between atoms: _161  and  _162
REMARK   71  A    between atoms: _162  and  _163
REMARK   72  A    between atoms: _172  and  _174
REMARK   73  A    between atoms: _174  and  _175
REMARK   74  A    between atoms: _174  and  _177
REMARK   75  A    between atoms: _177  and  _178
REMARK   76  A    between atoms: _178  and  _179
REMARK   77  A    between atoms: _179  and  _180
REMARK   78  A    between atoms: _180  and  _181
REMARK   79  A    between atoms: _185  and  _187
REMARK   80  A    between atoms: _187  and  _188
REMARK   81  A    between atoms: _187  and  _190
REMARK   82  A    between atoms: _193  and  _195
REMARK   83  A    between atoms: _195  and  _196
REMARK   84  A    between atoms: _195  and  _198
REMARK   85  A    between atoms: _198  and  _199
REMARK   86  A    between atoms: _199  and  _200
REMARK   87  A    between atoms: _202  and  _204
REMARK   88  A    between atoms: _204  and  _205
REMARK   89  A    between atoms: _204  and  _207
REMARK   90  A    between atoms: _207  and  _208
REMARK   91  A    between atoms: _208  and  _209
REMARK   92  A    between atoms: _209  and  _210
REMARK   93  A    between atoms: _219  and  _221
REMARK   94  A    between atoms: _221  and  _222
REMARK   95  A    between atoms: _221  and  _224
REMARK   96  A    between atoms: _224  and  _225
REMARK   97  A    between atoms: _227  and  _229
REMARK   98  A    between atoms: _229  and  _230
REMARK   99  A    between atoms: _229  and  _232
REMARK  100  A    between atoms: _232  and  _233
REMARK  101  A    between atoms: _235  and  _237
REMARK  102  A    between atoms: _237  and  _238
REMARK  103  A    between atoms: _237  and  _240
REMARK  104  A    between atoms: _240  and  _241
REMARK  105  A    between atoms: _241  and  _242
REMARK  106  A    between atoms: _247  and  _249
REMARK  107  A    between atoms: _249  and  _250
REMARK  108  A    between atoms: _249  and  _252
REMARK  109  A    between atoms: _252  and  _253
REMARK  110  A    between atoms: _259  and  _261
REMARK  111  A    between atoms: _261  and  _262
REMARK  112  A    between atoms: _261  and  _264
REMARK  113  A    between atoms: _264  and  _265
REMARK  114  A    between atoms: _265  and  _266
REMARK  115  A    between atoms: _266  and  _267
REMARK  116  A    between atoms: _276  and  _278
REMARK  117  A    between atoms: _278  and  _279
REMARK  118  A    between atoms: _278  and  _281
REMARK  119  A    between atoms: _281  and  _282
REMARK  120  A    between atoms: _287  and  _289
REMARK  121  A    between atoms: _289  and  _290
REMARK  122  A    between atoms: _289  and  _292
REMARK  123  A    between atoms: _292  and  _293
REMARK  124  A    between atoms: _296  and  _298
REMARK  125  A    between atoms: _298  and  _299
REMARK  126  A    between atoms: _298  and  _301
REMARK  127  A    between atoms: _301  and  _302
REMARK  128  A    between atoms: _305  and  _307
REMARK  129  A    between atoms: _307  and  _308
REMARK  130  A    between atoms: _307  and  _310
REMARK  131  A    between atoms: _310  and  _311
REMARK                            x       y       z     vdW  Elec       q    Type
REMARK                         _______ _______ _______ _____ _____    ______ ____
ROOT
ATOM      1  O   HOH     1      34.751  19.513  11.683  0.00  0.00    +0.000 OA
ENDROOT
TORSDOF 0
REMARK  Name = ../refined-set-2016/1mai/1mai_pocket.pdb
REMARK  131 active torsions:
REMARK  status: ('A' for Active; 'I' for Inactive)
REMARK    1  A    between atoms: _1  and  _3
REMARK    2  A    between atoms: _3  and  _4
REMARK    3  A    between atoms: _3  and  _6
REMARK    4  A    between atoms: _6  and  _7
REMARK    5  A    between atoms: _7  and  _8
REMARK    6  A    between atoms: _8  and  _9
REMARK    7  A    between atoms: _9  and  _10
REMARK    8  A    between atoms: _14  and  _16
REMARK    9  A    between atoms: _16  and  _17
REMARK   10  A    between atoms: _16  and  _19
REMARK   11  A    between atoms: _22  and  _24
REMARK   12  A    between atoms: _24  and  _25
REMARK   13  A    between atoms: _24  and  _27
REMARK   14  A    between atoms: _27  and  _28
REMARK   15  A    between atoms: _28  and  _29
REMARK   16  A    between atoms: _29  and  _30
REMARK   17  A    between atoms: _30  and  _31
REMARK   18  A    between atoms: _35  and  _37
REMARK   19  A    between atoms: _37  and  _38
REMARK   20  A    between atoms: _37  and  _40
REMARK   21  A    between atoms: _40  and  _41
REMARK   22  A    between atoms: _43  and  _45
REMARK   23  A    between atoms: _45  and  _46
REMARK   24  A    between atoms: _45  and  _48
REMARK   25  A    between atoms: _48  and  _49
REMARK   26  A    between atoms: _51  and  _53
REMARK   27  A    between atoms: _53  and  _54
REMARK   28  A    between atoms: _53  and  _56
REMARK   29  A    between atoms: _56  and  _57
REMARK   30  A    between atoms: _67  and  _69
REMARK   31  A    between atoms: _69  and  _70
REMARK   32  A    between atoms: _69  and  _72
REMARK   33  A    between atoms: _72  and  _73
REMARK   34  A    between atoms: _73  and  _74
REMARK   35  A    between atoms: _74  and  _75
REMARK   36  A    between atoms: _84  and  _86
REMARK   37  A    between atoms: _86  and  _87
REMARK   38  A    between atoms: _86  and  _89
REMARK   39  A    between atoms: _89  and  _90
REMARK   40  A    between atoms: _90  and  _91
REMARK   41  A    between atoms: _94  and  _96
REMARK   42  A    between atoms: _96  and  _97
REMARK   43  A    between atoms: _96  and  _99
REMARK   44  A    between atoms: _99  and  _100
REMARK   45  A    between atoms: _100  and  _101
REMARK   46  A    between atoms: _101  and  _102
REMARK   47  A    between atoms: _111  and  _113
REMARK   48  A    between atoms: _113  and  _114
REMARK   49  A    between atoms: _113  and  _116
REMARK   50  A    between atoms: _116  and  _117
REMARK   51  A    between atoms: _122  and  _123
REMARK   52  A    between atoms: _125  and  _127
REMARK   53  A    between atoms: _127  and  _128
REMARK   54  A    between atoms: _127  and  _130
REMARK   55  A    between atoms: _130  and  _131
REMARK   56  A    between atoms: _131  and  _132
REMARK   57  A    between atoms: _137  and  _139
REMARK   58  A    between atoms: _139  and  _140
REMARK   59  A    between atoms: _139  and  _142
REMARK   60  A    between atoms: _142  and  _143
REMARK   61  A    between atoms: _143  and  _144
REMARK   62  A    between atoms: _147  and  _149
REMARK   63  A    between atoms: _149  and  _150
REMARK   64  A    between atoms: _149  and  _152
REMARK   65  A    between atoms: _152  and  _153
REMARK   66  A    between atoms: _155  and  _157
REMARK   67  A    between atoms: _157  and  _158
REMARK   68  A    between atoms: _157  and  _160
REMARK   69  A    between atoms: _160  and  _161
REMARK   70  A    between atoms: _161  and  _162
REMARK   71  A    between atoms: _162  and  _163
REMARK   72  A    between atoms: _172  and  _174
REMARK   73  A    between atoms: _174  and  _175
REMARK   74  A    between atoms: _174  and  _177
REMARK   75  A    between atoms: _177  and  _178
REMARK   76  A    between atoms: _178  and  _179
REMARK   77  A    between atoms: _179  and  _180
REMARK   78  A    between atoms: _180  and  _181
REMARK   79  A    between atoms: _185  and  _187
REMARK   80  A    between atoms: _187  and  _188
REMARK   81  A    between atoms: _187  and  _190
REMARK   82  A    between atoms: _193  and  _195
REMARK   83  A    between atoms: _195  and  _196
REMARK   84  A    between atoms: _195  and  _198
REMARK   85  A    between atoms: _198  and  _199
REMARK   86  A    between atoms: _199  and  _200
REMARK   87  A    between atoms: _202  and  _204
REMARK   88  A    between atoms: _204  and  _205
REMARK   89  A    between atoms: _204  and  _207
REMARK   90  A    between atoms: _207  and  _208
REMARK   91  A    between atoms: _208  and  _209
REMARK   92  A    between atoms: _209  and  _210
REMARK   93  A    between atoms: _219  and  _221
REMARK   94  A    between atoms: _221  and  _222
REMARK   95  A    between atoms: _221  and  _224
REMARK   96  A    between atoms: _224  and  _225
REMARK   97  A    between atoms: _227  and  _229
REMARK   98  A    between atoms: _229  and  _230
REMARK   99  A    between atoms: _229  and  _232
REMARK  100  A    between atoms: _232  and  _233
REMARK  101  A    between atoms: _235  and  _237
REMARK  102  A    between atoms: _237  and  _238
REMARK  103  A    between atoms: _237  and  _240
REMARK  104  A    between atoms: _240  and  _241
REMARK  105  A    between atoms: _241  and  _242
REMARK  106  A    between atoms: _247  and  _249
REMARK  107  A    between atoms: _249  and  _250
REMARK  108  A    between atoms: _249  and  _252
REMARK  109  A    between atoms: _252  and  _253
REMARK  110  A    between atoms: _259  and  _261
REMARK  111  A    between atoms: _261  and  _262
REMARK  112  A    between atoms: _261  and  _264
REMARK  113  A    between atoms: _264  and  _265
REMARK  114  A    between atoms: _265  and  _266
REMARK  115  A    between atoms: _266  and  _267
REMARK  116  A    between atoms: _276  and  _278
REMARK  117  A    between atoms: _278  and  _279
REMARK  118  A    between atoms: _278  and  _281
REMARK  119  A    between atoms: _281  and  _282
REMARK  120  A    between atoms: _287  and  _289
REMARK  121  A    between atoms: _289  and  _290
REMARK  122  A    between atoms: _289  and  _292
REMARK  123  A    between atoms: _292  and  _293
REMARK  124  A    between atoms: _296  and  _298
REMARK  125  A    between atoms: _298  and  _299
REMARK  126  A    between atoms: _298  and  _301
REMARK  127  A    between atoms: _301  and  _302
REMARK  128  A    between atoms: _305  and  _307
REMARK  129  A    between atoms: _307  and  _308
REMARK  130  A    between atoms: _307  and  _310
REMARK  131  A    between atoms: _310  and  _311
REMARK                            x       y       z     vdW  Elec       q    Type
REMARK                         _______ _______ _______ _____ _____    ______ ____
ROOT
ATOM      1  O   HOH     1      37.334  16.093  13.464  0.00  0.00    +0.000 OA
ENDROOT
TORSDOF 0
REMARK  Name = ../refined-set-2016/1mai/1mai_pocket.pdb
REMARK  131 active torsions:
REMARK  status: ('A' for Active; 'I' for Inactive)
REMARK    1  A    between atoms: _1  and  _3
REMARK    2  A    between atoms: _3  and  _4
REMARK    3  A    between atoms: _3  and  _6
REMARK    4  A    between atoms: _6  and  _7
REMARK    5  A    between atoms: _7  and  _8
REMARK    6  A    between atoms: _8  and  _9
REMARK    7  A    between atoms: _9  and  _10
REMARK    8  A    between atoms: _14  and  _16
REMARK    9  A    between atoms: _16  and  _17
REMARK   10  A    between atoms: _16  and  _19
REMARK   11  A    between atoms: _22  and  _24
REMARK   12  A    between atoms: _24  and  _25
REMARK   13  A    between atoms: _24  and  _27
REMARK   14  A    between atoms: _27  and  _28
REMARK   15  A    between atoms: _28  and  _29
REMARK   16  A    between atoms: _29  and  _30
REMARK   17  A    between atoms: _30  and  _31
REMARK   18  A    between atoms: _35  and  _37
REMARK   19  A    between atoms: _37  and  _38
REMARK   20  A    between atoms: _37  and  _40
REMARK   21  A    between atoms: _40  and  _41
REMARK   22  A    between atoms: _43  and  _45
REMARK   23  A    between atoms: _45  and  _46
REMARK   24  A    between atoms: _45  and  _48
REMARK   25  A    between atoms: _48  and  _49
REMARK   26  A    between atoms: _51  and  _53
REMARK   27  A    between atoms: _53  and  _54
REMARK   28  A    between atoms: _53  and  _56
REMARK   29  A    between atoms: _56  and  _57
REMARK   30  A    between atoms: _67  and  _69
REMARK   31  A    between atoms: _69  and  _70
REMARK   32  A    between atoms: _69  and  _72
REMARK   33  A    between atoms: _72  and  _73
REMARK   34  A    between atoms: _73  and  _74
REMARK   35  A    between atoms: _74  and  _75
REMARK   36  A    between atoms: _84  and  _86
REMARK   37  A    between atoms: _86  and  _87
REMARK   38  A    between atoms: _86  and  _89
REMARK   39  A    between atoms: _89  and  _90
REMARK   40  A    between atoms: _90  and  _91
REMARK   41  A    between atoms: _94  and  _96
REMARK   42  A    between atoms: _96  and  _97
REMARK   43  A    between atoms: _96  and  _99
REMARK   44  A    between atoms: _99  and  _100
REMARK   45  A    between atoms: _100  and  _101
REMARK   46  A    between atoms: _101  and  _102
REMARK   47  A    between atoms: _111  and  _113
REMARK   48  A    between atoms: _113  and  _114
REMARK   49  A    between atoms: _113  and  _116
REMARK   50  A    between atoms: _116  and  _117
REMARK   51  A    between atoms: _122  and  _123
REMARK   52  A    between atoms: _125  and  _127
REMARK   53  A    between atoms: _127  and  _128
REMARK   54  A    between atoms: _127  and  _130
REMARK   55  A    between atoms: _130  and  _131
REMARK   56  A    between atoms: _131  and  _132
REMARK   57  A    between atoms: _137  and  _139
REMARK   58  A    between atoms: _139  and  _140
REMARK   59  A    between atoms: _139  and  _142
REMARK   60  A    between atoms: _142  and  _143
REMARK   61  A    between atoms: _143  and  _144
REMARK   62  A    between atoms: _147  and  _149
REMARK   63  A    between atoms: _149  and  _150
REMARK   64  A    between atoms: _149  and  _152
REMARK   65  A    between atoms: _152  and  _153
REMARK   66  A    between atoms: _155  and  _157
REMARK   67  A    between atoms: _157  and  _158
REMARK   68  A    between atoms: _157  and  _160
REMARK   69  A    between atoms: _160  and  _161
REMARK   70  A    between atoms: _161  and  _162
REMARK   71  A    between atoms: _162  and  _163
REMARK   72  A    between atoms: _172  and  _174
REMARK   73  A    between atoms: _174  and  _175
REMARK   74  A    between atoms: _174  and  _177
REMARK   75  A    between atoms: _177  and  _178
REMARK   76  A    between atoms: _178  and  _179
REMARK   77  A    between atoms: _179  and  _180
REMARK   78  A    between atoms: _180  and  _181
REMARK   79  A    between atoms: _185  and  _187
REMARK   80  A    between atoms: _187  and  _188
REMARK   81  A    between atoms: _187  and  _190
REMARK   82  A    between atoms: _193  and  _195
REMARK   83  A    between atoms: _195  and  _196
REMARK   84  A    between atoms: _195  and  _198
REMARK   85  A    between atoms: _198  and  _199
REMARK   86  A    between atoms: _199  and  _200
REMARK   87  A    between atoms: _202  and  _204
REMARK   88  A    between atoms: _204  and  _205
REMARK   89  A    between atoms: _204  and  _207
REMARK   90  A    between atoms: _207  and  _208
REMARK   91  A    between atoms: _208  and  _209
REMARK   92  A    between atoms: _209  and  _210
REMARK   93  A    between atoms: _219  and  _221
REMARK   94  A    between atoms: _221  and  _222
REMARK   95  A    between atoms: _221  and  _224
REMARK   96  A    between atoms: _224  and  _225
REMARK   97  A    between atoms: _227  and  _229
REMARK   98  A    between atoms: _229  and  _230
REMARK   99  A    between atoms: _229  and  _232
REMARK  100  A    between atoms: _232  and  _233
REMARK  101  A    between atoms: _235  and  _237
REMARK  102  A    between atoms: _237  and  _238
REMARK  103  A    between atoms: _237  and  _240
REMARK  104  A    between atoms: _240  and  _241
REMARK  105  A    between atoms: _241  and  _242
REMARK  106  A    between atoms: _247  and  _249
REMARK  107  A    between atoms: _249  and  _250
REMARK  108  A    between atoms: _249  and  _252
REMARK  109  A    between atoms: _252  and  _253
REMARK  110  A    between atoms: _259  and  _261
REMARK  111  A    between atoms: _261  and  _262
REMARK  112  A    between atoms: _261  and  _264
REMARK  113  A    between atoms: _264  and  _265
REMARK  114  A    between atoms: _265  and  _266
REMARK  115  A    between atoms: _266  and  _267
REMARK  116  A    between atoms: _276  and  _278
REMARK  117  A    between atoms: _278  and  _279
REMARK  118  A    between atoms: _278  and  _281
REMARK  119  A    between atoms: _281  and  _282
REMARK  120  A    between atoms: _287  and  _289
REMARK  121  A    between atoms: _289  and  _290
REMARK  122  A    between atoms: _289  and  _292
REMARK  123  A    between atoms: _292  and  _293
REMARK  124  A    between atoms: _296  and  _298
REMARK  125  A    between atoms: _298  and  _299
REMARK  126  A    between atoms: _298  and  _301
REMARK  127  A    between atoms: _301  and  _302
REMARK  128  A    between atoms: _305  and  _307
REMARK  129  A    between atoms: _307  and  _308
REMARK  130  A    between atoms: _307  and  _310
REMARK  131  A    between atoms: _310  and  _311
REMARK                            x       y       z     vdW  Elec       q    Type
REMARK                         _______ _______ _______ _____ _____    ______ ____
ROOT
ATOM      1  O   HOH     1      34.579  16.809  11.604  0.00  0.00    +0.000 OA
ENDROOT
TORSDOF 0
REMARK  Name = ../refined-set-2016/1mai/1mai_pocket.pdb
REMARK  131 active torsions:
REMARK  status: ('A' for Active; 'I' for Inactive)
REMARK    1  A    between atoms: _1  and  _3
REMARK    2  A    between atoms: _3  and  _4
REMARK    3  A    between atoms: _3  and  _6
REMARK    4  A    between atoms: _6  and  _7
REMARK    5  A    between atoms: _7  and  _8
REMARK    6  A    between atoms: _8  and  _9
REMARK    7  A    between atoms: _9  and  _10
REMARK    8  A    between atoms: _14  and  _16
REMARK    9  A    between atoms: _16  and  _17
REMARK   10  A    between atoms: _16  and  _19
REMARK   11  A    between atoms: _22  and  _24
REMARK   12  A    between atoms: _24  and  _25
REMARK   13  A    between atoms: _24  and  _27
REMARK   14  A    between atoms: _27  and  _28
REMARK   15  A    between atoms: _28  and  _29
REMARK   16  A    between atoms: _29  and  _30
REMARK   17  A    between atoms: _30  and  _31
REMARK   18  A    between atoms: _35  and  _37
REMARK   19  A    between atoms: _37  and  _38
REMARK   20  A    between atoms: _37  and  _40
REMARK   21  A    between atoms: _40  and  _41
REMARK   22  A    between atoms: _43  and  _45
REMARK   23  A    between atoms: _45  and  _46
REMARK   24  A    between atoms: _45  and  _48
REMARK   25  A    between atoms: _48  and  _49
REMARK   26  A    between atoms: _51  and  _53
REMARK   27  A    between atoms: _53  and  _54
REMARK   28  A    between atoms: _53  and  _56
REMARK   29  A    between atoms: _56  and  _57
REMARK   30  A    between atoms: _67  and  _69
REMARK   31  A    between atoms: _69  and  _70
REMARK   32  A    between atoms: _69  and  _72
REMARK   33  A    between atoms: _72  and  _73
REMARK   34  A    between atoms: _73  and  _74
REMARK   35  A    between atoms: _74  and  _75
REMARK   36  A    between atoms: _84  and  _86
REMARK   37  A    between atoms: _86  and  _87
REMARK   38  A    between atoms: _86  and  _89
REMARK   39  A    between atoms: _89  and  _90
REMARK   40  A    between atoms: _90  and  _91
REMARK   41  A    between atoms: _94  and  _96
REMARK   42  A    between atoms: _96  and  _97
REMARK   43  A    between atoms: _96  and  _99
REMARK   44  A    between atoms: _99  and  _100
REMARK   45  A    between atoms: _100  and  _101
REMARK   46  A    between atoms: _101  and  _102
REMARK   47  A    between atoms: _111  and  _113
REMARK   48  A    between atoms: _113  and  _114
REMARK   49  A    between atoms: _113  and  _116
REMARK   50  A    between atoms: _116  and  _117
REMARK   51  A    between atoms: _122  and  _123
REMARK   52  A    between atoms: _125  and  _127
REMARK   53  A    between atoms: _127  and  _128
REMARK   54  A    between atoms: _127  and  _130
REMARK   55  A    between atoms: _130  and  _131
REMARK   56  A    between atoms: _131  and  _132
REMARK   57  A    between atoms: _137  and  _139
REMARK   58  A    between atoms: _139  and  _140
REMARK   59  A    between atoms: _139  and  _142
REMARK   60  A    between atoms: _142  and  _143
REMARK   61  A    between atoms: _143  and  _144
REMARK   62  A    between atoms: _147  and  _149
REMARK   63  A    between atoms: _149  and  _150
REMARK   64  A    between atoms: _149  and  _152
REMARK   65  A    between atoms: _152  and  _153
REMARK   66  A    between atoms: _155  and  _157
REMARK   67  A    between atoms: _157  and  _158
REMARK   68  A    between atoms: _157  and  _160
REMARK   69  A    between atoms: _160  and  _161
REMARK   70  A    between atoms: _161  and  _162
REMARK   71  A    between atoms: _162  and  _163
REMARK   72  A    between atoms: _172  and  _174
REMARK   73  A    between atoms: _174  and  _175
REMARK   74  A    between atoms: _174  and  _177
REMARK   75  A    between atoms: _177  and  _178
REMARK   76  A    between atoms: _178  and  _179
REMARK   77  A    between atoms: _179  and  _180
REMARK   78  A    between atoms: _180  and  _181
REMARK   79  A    between atoms: _185  and  _187
REMARK   80  A    between atoms: _187  and  _188
REMARK   81  A    between atoms: _187  and  _190
REMARK   82  A    between atoms: _193  and  _195
REMARK   83  A    between atoms: _195  and  _196
REMARK   84  A    between atoms: _195  and  _198
REMARK   85  A    between atoms: _198  and  _199
REMARK   86  A    between atoms: _199  and  _200
REMARK   87  A    between atoms: _202  and  _204
REMARK   88  A    between atoms: _204  and  _205
REMARK   89  A    between atoms: _204  and  _207
REMARK   90  A    between atoms: _207  and  _208
REMARK   91  A    between atoms: _208  and  _209
REMARK   92  A    between atoms: _209  and  _210
REMARK   93  A    between atoms: _219  and  _221
REMARK   94  A    between atoms: _221  and  _222
REMARK   95  A    between atoms: _221  and  _224
REMARK   96  A    between atoms: _224  and  _225
REMARK   97  A    between atoms: _227  and  _229
REMARK   98  A    between atoms: _229  and  _230
REMARK   99  A    between atoms: _229  and  _232
REMARK  100  A    between atoms: _232  and  _233
REMARK  101  A    between atoms: _235  and  _237
REMARK  102  A    between atoms: _237  and  _238
REMARK  103  A    between atoms: _237  and  _240
REMARK  104  A    between atoms: _240  and  _241
REMARK  105  A    between atoms: _241  and  _242
REMARK  106  A    between atoms: _247  and  _249
REMARK  107  A    between atoms: _249  and  _250
REMARK  108  A    between atoms: _249  and  _252
REMARK  109  A    between atoms: _252  and  _253
REMARK  110  A    between atoms: _259  and  _261
REMARK  111  A    between atoms: _261  and  _262
REMARK  112  A    between atoms: _261  and  _264
REMARK  113  A    between atoms: _264  and  _265
REMARK  114  A    between atoms: _265  and  _266
REMARK  115  A    between atoms: _266  and  _267
REMARK  116  A    between atoms: _276  and  _278
REMARK  117  A    between atoms: _278  and  _279
REMARK  118  A    between atoms: _278  and  _281
REMARK  119  A    between atoms: _281  and  _282
REMARK  120  A    between atoms: _287  and  _289
REMARK  121  A    between atoms: _289  and  _290
REMARK  122  A    between atoms: _289  and  _292
REMARK  123  A    between atoms: _292  and  _293
REMARK  124  A    between atoms: _296  and  _298
REMARK  125  A    between atoms: _298  and  _299
REMARK  126  A    between atoms: _298  and  _301
REMARK  127  A    between atoms: _301  and  _302
REMARK  128  A    between atoms: _305  and  _307
REMARK  129  A    between atoms: _307  and  _308
REMARK  130  A    between atoms: _307  and  _310
REMARK  131  A    between atoms: _310  and  _311
REMARK                            x       y       z     vdW  Elec       q    Type
REMARK                         _______ _______ _______ _____ _____    ______ ____
ROOT
ATOM      1  O   HOH     1      34.175  22.869   0.071  0.00  0.00    +0.000 OA
ENDROOT
TORSDOF 0
REMARK  Name = ../refined-set-2016/1mai/1mai_pocket.pdb
REMARK  131 active torsions:
REMARK  status: ('A' for Active; 'I' for Inactive)
REMARK    1  A    between atoms: _1  and  _3
REMARK    2  A    between atoms: _3  and  _4
REMARK    3  A    between atoms: _3  and  _6
REMARK    4  A    between atoms: _6  and  _7
REMARK    5  A    between atoms: _7  and  _8
REMARK    6  A    between atoms: _8  and  _9
REMARK    7  A    between atoms: _9  and  _10
REMARK    8  A    between atoms: _14  and  _16
REMARK    9  A    between atoms: _16  and  _17
REMARK   10  A    between atoms: _16  and  _19
REMARK   11  A    between atoms: _22  and  _24
REMARK   12  A    between atoms: _24  and  _25
REMARK   13  A    between atoms: _24  and  _27
REMARK   14  A    between atoms: _27  and  _28
REMARK   15  A    between atoms: _28  and  _29
REMARK   16  A    between atoms: _29  and  _30
REMARK   17  A    between atoms: _30  and  _31
REMARK   18  A    between atoms: _35  and  _37
REMARK   19  A    between atoms: _37  and  _38
REMARK   20  A    between atoms: _37  and  _40
REMARK   21  A    between atoms: _40  and  _41
REMARK   22  A    between atoms: _43  and  _45
REMARK   23  A    between atoms: _45  and  _46
REMARK   24  A    between atoms: _45  and  _48
REMARK   25  A    between atoms: _48  and  _49
REMARK   26  A    between atoms: _51  and  _53
REMARK   27  A    between atoms: _53  and  _54
REMARK   28  A    between atoms: _53  and  _56
REMARK   29  A    between atoms: _56  and  _57
REMARK   30  A    between atoms: _67  and  _69
REMARK   31  A    between atoms: _69  and  _70
REMARK   32  A    between atoms: _69  and  _72
REMARK   33  A    between atoms: _72  and  _73
REMARK   34  A    between atoms: _73  and  _74
REMARK   35  A    between atoms: _74  and  _75
REMARK   36  A    between atoms: _84  and  _86
REMARK   37  A    between atoms: _86  and  _87
REMARK   38  A    between atoms: _86  and  _89
REMARK   39  A    between atoms: _89  and  _90
REMARK   40  A    between atoms: _90  and  _91
REMARK   41  A    between atoms: _94  and  _96
REMARK   42  A    between atoms: _96  and  _97
REMARK   43  A    between atoms: _96  and  _99
REMARK   44  A    between atoms: _99  and  _100
REMARK   45  A    between atoms: _100  and  _101
REMARK   46  A    between atoms: _101  and  _102
REMARK   47  A    between atoms: _111  and  _113
REMARK   48  A    between atoms: _113  and  _114
REMARK   49  A    between atoms: _113  and  _116
REMARK   50  A    between atoms: _116  and  _117
REMARK   51  A    between atoms: _122  and  _123
REMARK   52  A    between atoms: _125  and  _127
REMARK   53  A    between atoms: _127  and  _128
REMARK   54  A    between atoms: _127  and  _130
REMARK   55  A    between atoms: _130  and  _131
REMARK   56  A    between atoms: _131  and  _132
REMARK   57  A    between atoms: _137  and  _139
REMARK   58  A    between atoms: _139  and  _140
REMARK   59  A    between atoms: _139  and  _142
REMARK   60  A    between atoms: _142  and  _143
REMARK   61  A    between atoms: _143  and  _144
REMARK   62  A    between atoms: _147  and  _149
REMARK   63  A    between atoms: _149  and  _150
REMARK   64  A    between atoms: _149  and  _152
REMARK   65  A    between atoms: _152  and  _153
REMARK   66  A    between atoms: _155  and  _157
REMARK   67  A    between atoms: _157  and  _158
REMARK   68  A    between atoms: _157  and  _160
REMARK   69  A    between atoms: _160  and  _161
REMARK   70  A    between atoms: _161  and  _162
REMARK   71  A    between atoms: _162  and  _163
REMARK   72  A    between atoms: _172  and  _174
REMARK   73  A    between atoms: _174  and  _175
REMARK   74  A    between atoms: _174  and  _177
REMARK   75  A    between atoms: _177  and  _178
REMARK   76  A    between atoms: _178  and  _179
REMARK   77  A    between atoms: _179  and  _180
REMARK   78  A    between atoms: _180  and  _181
REMARK   79  A    between atoms: _185  and  _187
REMARK   80  A    between atoms: _187  and  _188
REMARK   81  A    between atoms: _187  and  _190
REMARK   82  A    between atoms: _193  and  _195
REMARK   83  A    between atoms: _195  and  _196
REMARK   84  A    between atoms: _195  and  _198
REMARK   85  A    between atoms: _198  and  _199
REMARK   86  A    between atoms: _199  and  _200
REMARK   87  A    between atoms: _202  and  _204
REMARK   88  A    between atoms: _204  and  _205
REMARK   89  A    between atoms: _204  and  _207
REMARK   90  A    between atoms: _207  and  _208
REMARK   91  A    between atoms: _208  and  _209
REMARK   92  A    between atoms: _209  and  _210
REMARK   93  A    between atoms: _219  and  _221
REMARK   94  A    between atoms: _221  and  _222
REMARK   95  A    between atoms: _221  and  _224
REMARK   96  A    between atoms: _224  and  _225
REMARK   97  A    between atoms: _227  and  _229
REMARK   98  A    between atoms: _229  and  _230
REMARK   99  A    between atoms: _229  and  _232
REMARK  100  A    between atoms: _232  and  _233
REMARK  101  A    between atoms: _235  and  _237
REMARK  102  A    between atoms: _237  and  _238
REMARK  103  A    between atoms: _237  and  _240
REMARK  104  A    between atoms: _240  and  _241
REMARK  105  A    between atoms: _241  and  _242
REMARK  106  A    between atoms: _247  and  _249
REMARK  107  A    between atoms: _249  and  _250
REMARK  108  A    between atoms: _249  and  _252
REMARK  109  A    between atoms: _252  and  _253
REMARK  110  A    between atoms: _259  and  _261
REMARK  111  A    between atoms: _261  and  _262
REMARK  112  A    between atoms: _261  and  _264
REMARK  113  A    between atoms: _264  and  _265
REMARK  114  A    between atoms: _265  and  _266
REMARK  115  A    between atoms: _266  and  _267
REMARK  116  A    between atoms: _276  and  _278
REMARK  117  A    between atoms: _278  and  _279
REMARK  118  A    between atoms: _278  and  _281
REMARK  119  A    between atoms: _281  and  _282
REMARK  120  A    between atoms: _287  and  _289
REMARK  121  A    between atoms: _289  and  _290
REMARK  122  A    between atoms: _289  and  _292
REMARK  123  A    between atoms: _292  and  _293
REMARK  124  A    between atoms: _296  and  _298
REMARK  125  A    between atoms: _298  and  _299
REMARK  126  A    between atoms: _298  and  _301
REMARK  127  A    between atoms: _301  and  _302
REMARK  128  A    between atoms: _305  and  _307
REMARK  129  A    between atoms: _307  and  _308
REMARK  130  A    between atoms: _307  and  _310
REMARK  131  A    between atoms: _310  and  _311
REMARK                            x       y       z     vdW  Elec       q    Type
REMARK                         _______ _______ _______ _____ _____    ______ ____
ROOT
ATOM      1  O   HOH     1      32.805  26.287   3.018  0.00  0.00    +0.000 OA
ENDROOT
TORSDOF 0
REMARK  Name = ../refined-set-2016/1mai/1mai_pocket.pdb
REMARK  131 active torsions:
REMARK  status: ('A' for Active; 'I' for Inactive)
REMARK    1  A    between atoms: _1  and  _3
REMARK    2  A    between atoms: _3  and  _4
REMARK    3  A    between atoms: _3  and  _6
REMARK    4  A    between atoms: _6  and  _7
REMARK    5  A    between atoms: _7  and  _8
REMARK    6  A    between atoms: _8  and  _9
REMARK    7  A    between atoms: _9  and  _10
REMARK    8  A    between atoms: _14  and  _16
REMARK    9  A    between atoms: _16  and  _17
REMARK   10  A    between atoms: _16  and  _19
REMARK   11  A    between atoms: _22  and  _24
REMARK   12  A    between atoms: _24  and  _25
REMARK   13  A    between atoms: _24  and  _27
REMARK   14  A    between atoms: _27  and  _28
REMARK   15  A    between atoms: _28  and  _29
REMARK   16  A    between atoms: _29  and  _30
REMARK   17  A    between atoms: _30  and  _31
REMARK   18  A    between atoms: _35  and  _37
REMARK   19  A    between atoms: _37  and  _38
REMARK   20  A    between atoms: _37  and  _40
REMARK   21  A    between atoms: _40  and  _41
REMARK   22  A    between atoms: _43  and  _45
REMARK   23  A    between atoms: _45  and  _46
REMARK   24  A    between atoms: _45  and  _48
REMARK   25  A    between atoms: _48  and  _49
REMARK   26  A    between atoms: _51  and  _53
REMARK   27  A    between atoms: _53  and  _54
REMARK   28  A    between atoms: _53  and  _56
REMARK   29  A    between atoms: _56  and  _57
REMARK   30  A    between atoms: _67  and  _69
REMARK   31  A    between atoms: _69  and  _70
REMARK   32  A    between atoms: _69  and  _72
REMARK   33  A    between atoms: _72  and  _73
REMARK   34  A    between atoms: _73  and  _74
REMARK   35  A    between atoms: _74  and  _75
REMARK   36  A    between atoms: _84  and  _86
REMARK   37  A    between atoms: _86  and  _87
REMARK   38  A    between atoms: _86  and  _89
REMARK   39  A    between atoms: _89  and  _90
REMARK   40  A    between atoms: _90  and  _91
REMARK   41  A    between atoms: _94  and  _96
REMARK   42  A    between atoms: _96  and  _97
REMARK   43  A    between atoms: _96  and  _99
REMARK   44  A    between atoms: _99  and  _100
REMARK   45  A    between atoms: _100  and  _101
REMARK   46  A    between atoms: _101  and  _102
REMARK   47  A    between atoms: _111  and  _113
REMARK   48  A    between atoms: _113  and  _114
REMARK   49  A    between atoms: _113  and  _116
REMARK   50  A    between atoms: _116  and  _117
REMARK   51  A    between atoms: _122  and  _123
REMARK   52  A    between atoms: _125  and  _127
REMARK   53  A    between atoms: _127  and  _128
REMARK   54  A    between atoms: _127  and  _130
REMARK   55  A    between atoms: _130  and  _131
REMARK   56  A    between atoms: _131  and  _132
REMARK   57  A    between atoms: _137  and  _139
REMARK   58  A    between atoms: _139  and  _140
REMARK   59  A    between atoms: _139  and  _142
REMARK   60  A    between atoms: _142  and  _143
REMARK   61  A    between atoms: _143  and  _144
REMARK   62  A    between atoms: _147  and  _149
REMARK   63  A    between atoms: _149  and  _150
REMARK   64  A    between atoms: _149  and  _152
REMARK   65  A    between atoms: _152  and  _153
REMARK   66  A    between atoms: _155  and  _157
REMARK   67  A    between atoms: _157  and  _158
REMARK   68  A    between atoms: _157  and  _160
REMARK   69  A    between atoms: _160  and  _161
REMARK   70  A    between atoms: _161  and  _162
REMARK   71  A    between atoms: _162  and  _163
REMARK   72  A    between atoms: _172  and  _174
REMARK   73  A    between atoms: _174  and  _175
REMARK   74  A    between atoms: _174  and  _177
REMARK   75  A    between atoms: _177  and  _178
REMARK   76  A    between atoms: _178  and  _179
REMARK   77  A    between atoms: _179  and  _180
REMARK   78  A    between atoms: _180  and  _181
REMARK   79  A    between atoms: _185  and  _187
REMARK   80  A    between atoms: _187  and  _188
REMARK   81  A    between atoms: _187  and  _190
REMARK   82  A    between atoms: _193  and  _195
REMARK   83  A    between atoms: _195  and  _196
REMARK   84  A    between atoms: _195  and  _198
REMARK   85  A    between atoms: _198  and  _199
REMARK   86  A    between atoms: _199  and  _200
REMARK   87  A    between atoms: _202  and  _204
REMARK   88  A    between atoms: _204  and  _205
REMARK   89  A    between atoms: _204  and  _207
REMARK   90  A    between atoms: _207  and  _208
REMARK   91  A    between atoms: _208  and  _209
REMARK   92  A    between atoms: _209  and  _210
REMARK   93  A    between atoms: _219  and  _221
REMARK   94  A    between atoms: _221  and  _222
REMARK   95  A    between atoms: _221  and  _224
REMARK   96  A    between atoms: _224  and  _225
REMARK   97  A    between atoms: _227  and  _229
REMARK   98  A    between atoms: _229  and  _230
REMARK   99  A    between atoms: _229  and  _232
REMARK  100  A    between atoms: _232  and  _233
REMARK  101  A    between atoms: _235  and  _237
REMARK  102  A    between atoms: _237  and  _238
REMARK  103  A    between atoms: _237  and  _240
REMARK  104  A    between atoms: _240  and  _241
REMARK  105  A    between atoms: _241  and  _242
REMARK  106  A    between atoms: _247  and  _249
REMARK  107  A    between atoms: _249  and  _250
REMARK  108  A    between atoms: _249  and  _252
REMARK  109  A    between atoms: _252  and  _253
REMARK  110  A    between atoms: _259  and  _261
REMARK  111  A    between atoms: _261  and  _262
REMARK  112  A    between atoms: _261  and  _264
REMARK  113  A    between atoms: _264  and  _265
REMARK  114  A    between atoms: _265  and  _266
REMARK  115  A    between atoms: _266  and  _267
REMARK  116  A    between atoms: _276  and  _278
REMARK  117  A    between atoms: _278  and  _279
REMARK  118  A    between atoms: _278  and  _281
REMARK  119  A    between atoms: _281  and  _282
REMARK  120  A    between atoms: _287  and  _289
REMARK  121  A    between atoms: _289  and  _290
REMARK  122  A    between atoms: _289  and  _292
REMARK  123  A    between atoms: _292  and  _293
REMARK  124  A    between atoms: _296  and  _298
REMARK  125  A    between atoms: _298  and  _299
REMARK  126  A    between atoms: _298  and  _301
REMARK  127  A    between atoms: _301  and  _302
REMARK  128  A    between atoms: _305  and  _307
REMARK  129  A    between atoms: _307  and  _308
REMARK  130  A    between atoms: _307  and  _310
REMARK  131  A    between atoms: _310  and  _311
REMARK                            x       y       z     vdW  Elec       q    Type
REMARK                         _______ _______ _______ _____ _____    ______ ____
ROOT
ATOM      1  O   HOH     1      33.114  13.087  11.615  0.00  0.00    +0.000 OA
ENDROOT
TORSDOF 0
REMARK  Name = ../refined-set-2016/1mai/1mai_pocket.pdb
REMARK  131 active torsions:
REMARK  status: ('A' for Active; 'I' for Inactive)
REMARK    1  A    between atoms: _1  and  _3
REMARK    2  A    between atoms: _3  and  _4
REMARK    3  A    between atoms: _3  and  _6
REMARK    4  A    between atoms: _6  and  _7
REMARK    5  A    between atoms: _7  and  _8
REMARK    6  A    between atoms: _8  and  _9
REMARK    7  A    between atoms: _9  and  _10
REMARK    8  A    between atoms: _14  and  _16
REMARK    9  A    between atoms: _16  and  _17
REMARK   10  A    between atoms: _16  and  _19
REMARK   11  A    between atoms: _22  and  _24
REMARK   12  A    between atoms: _24  and  _25
REMARK   13  A    between atoms: _24  and  _27
REMARK   14  A    between atoms: _27  and  _28
REMARK   15  A    between atoms: _28  and  _29
REMARK   16  A    between atoms: _29  and  _30
REMARK   17  A    between atoms: _30  and  _31
REMARK   18  A    between atoms: _35  and  _37
REMARK   19  A    between atoms: _37  and  _38
REMARK   20  A    between atoms: _37  and  _40
REMARK   21  A    between atoms: _40  and  _41
REMARK   22  A    between atoms: _43  and  _45
REMARK   23  A    between atoms: _45  and  _46
REMARK   24  A    between atoms: _45  and  _48
REMARK   25  A    between atoms: _48  and  _49
REMARK   26  A    between atoms: _51  and  _53
REMARK   27  A    between atoms: _53  and  _54
REMARK   28  A    between atoms: _53  and  _56
REMARK   29  A    between atoms: _56  and  _57
REMARK   30  A    between atoms: _67  and  _69
REMARK   31  A    between atoms: _69  and  _70
REMARK   32  A    between atoms: _69  and  _72
REMARK   33  A    between atoms: _72  and  _73
REMARK   34  A    between atoms: _73  and  _74
REMARK   35  A    between atoms: _74  and  _75
REMARK   36  A    between atoms: _84  and  _86
REMARK   37  A    between atoms: _86  and  _87
REMARK   38  A    between atoms: _86  and  _89
REMARK   39  A    between atoms: _89  and  _90
REMARK   40  A    between atoms: _90  and  _91
REMARK   41  A    between atoms: _94  and  _96
REMARK   42  A    between atoms: _96  and  _97
REMARK   43  A    between atoms: _96  and  _99
REMARK   44  A    between atoms: _99  and  _100
REMARK   45  A    between atoms: _100  and  _101
REMARK   46  A    between atoms: _101  and  _102
REMARK   47  A    between atoms: _111  and  _113
REMARK   48  A    between atoms: _113  and  _114
REMARK   49  A    between atoms: _113  and  _116
REMARK   50  A    between atoms: _116  and  _117
REMARK   51  A    between atoms: _122  and  _123
REMARK   52  A    between atoms: _125  and  _127
REMARK   53  A    between atoms: _127  and  _128
REMARK   54  A    between atoms: _127  and  _130
REMARK   55  A    between atoms: _130  and  _131
REMARK   56  A    between atoms: _131  and  _132
REMARK   57  A    between atoms: _137  and  _139
REMARK   58  A    between atoms: _139  and  _140
REMARK   59  A    between atoms: _139  and  _142
REMARK   60  A    between atoms: _142  and  _143
REMARK   61  A    between atoms: _143  and  _144
REMARK   62  A    between atoms: _147  and  _149
REMARK   63  A    between atoms: _149  and  _150
REMARK   64  A    between atoms: _149  and  _152
REMARK   65  A    between atoms: _152  and  _153
REMARK   66  A    between atoms: _155  and  _157
REMARK   67  A    between atoms: _157  and  _158
REMARK   68  A    between atoms: _157  and  _160
REMARK   69  A    between atoms: _160  and  _161
REMARK   70  A    between atoms: _161  and  _162
REMARK   71  A    between atoms: _162  and  _163
REMARK   72  A    between atoms: _172  and  _174
REMARK   73  A    between atoms: _174  and  _175
REMARK   74  A    between atoms: _174  and  _177
REMARK   75  A    between atoms: _177  and  _178
REMARK   76  A    between atoms: _178  and  _179
REMARK   77  A    between atoms: _179  and  _180
REMARK   78  A    between atoms: _180  and  _181
REMARK   79  A    between atoms: _185  and  _187
REMARK   80  A    between atoms: _187  and  _188
REMARK   81  A    between atoms: _187  and  _190
REMARK   82  A    between atoms: _193  and  _195
REMARK   83  A    between atoms: _195  and  _196
REMARK   84  A    between atoms: _195  and  _198
REMARK   85  A    between atoms: _198  and  _199
REMARK   86  A    between atoms: _199  and  _200
REMARK   87  A    between atoms: _202  and  _204
REMARK   88  A    between atoms: _204  and  _205
REMARK   89  A    between atoms: _204  and  _207
REMARK   90  A    between atoms: _207  and  _208
REMARK   91  A    between atoms: _208  and  _209
REMARK   92  A    between atoms: _209  and  _210
REMARK   93  A    between atoms: _219  and  _221
REMARK   94  A    between atoms: _221  and  _222
REMARK   95  A    between atoms: _221  and  _224
REMARK   96  A    between atoms: _224  and  _225
REMARK   97  A    between atoms: _227  and  _229
REMARK   98  A    between atoms: _229  and  _230
REMARK   99  A    between atoms: _229  and  _232
REMARK  100  A    between atoms: _232  and  _233
REMARK  101  A    between atoms: _235  and  _237
REMARK  102  A    between atoms: _237  and  _238
REMARK  103  A    between atoms: _237  and  _240
REMARK  104  A    between atoms: _240  and  _241
REMARK  105  A    between atoms: _241  and  _242
REMARK  106  A    between atoms: _247  and  _249
REMARK  107  A    between atoms: _249  and  _250
REMARK  108  A    between atoms: _249  and  _252
REMARK  109  A    between atoms: _252  and  _253
REMARK  110  A    between atoms: _259  and  _261
REMARK  111  A    between atoms: _261  and  _262
REMARK  112  A    between atoms: _261  and  _264
REMARK  113  A    between atoms: _264  and  _265
REMARK  114  A    between atoms: _265  and  _266
REMARK  115  A    between atoms: _266  and  _267
REMARK  116  A    between atoms: _276  and  _278
REMARK  117  A    between atoms: _278  and  _279
REMARK  118  A    between atoms: _278  and  _281
REMARK  119  A    between atoms: _281  and  _282
REMARK  120  A    between atoms: _287  and  _289
REMARK  121  A    between atoms: _289  and  _290
REMARK  122  A    between atoms: _289  and  _292
REMARK  123  A    between atoms: _292  and  _293
REMARK  124  A    between atoms: _296  and  _298
REMARK  125  A    between atoms: _298  and  _299
REMARK  126  A    between atoms: _298  and  _301
REMARK  127  A    between atoms: _301  and  _302
REMARK  128  A    between atoms: _305  and  _307
REMARK  129  A    between atoms: _307  and  _308
REMARK  130  A    between atoms: _307  and  _310
REMARK  131  A    between atoms: _310  and  _311
REMARK                            x       y       z     vdW  Elec       q    Type
REMARK                         _______ _______ _______ _____ _____    ______ ____
ROOT
ATOM      1  O   HOH     1      33.554   8.825   8.108  0.00  0.00    +0.000 OA
ENDROOT
TORSDOF 0
