REMARK  Name = ../refined-set-2016/3gc4/3gc4_pocket.pdb
REMARK  206 active torsions:
REMARK  status: ('A' for Active; 'I' for Inactive)
REMARK    1  A    between atoms: _1  and  _3
REMARK    2  A    between atoms: _3  and  _4
REMARK    3  A    between atoms: _3  and  _6
REMARK    4  A    between atoms: _6  and  _7
REMARK    5  A    between atoms: _7  and  _8
REMARK    6  A    between atoms: _10  and  _12
REMARK    7  A    between atoms: _12  and  _13
REMARK    8  A    between atoms: _12  and  _15
REMARK    9  A    between atoms: _18  and  _20
REMARK   10  A    between atoms: _20  and  _21
REMARK   11  A    between atoms: _23  and  _25
REMARK   12  A    between atoms: _25  and  _26
REMARK   13  A    between atoms: _25  and  _28
REMARK   14  A    between atoms: _28  and  _29
REMARK   15  A    between atoms: _32  and  _34
REMARK   16  A    between atoms: _34  and  _35
REMARK   17  A    between atoms: _34  and  _37
REMARK   18  A    between atoms: _37  and  _38
REMARK   19  A    between atoms: _38  and  _39
REMARK   20  A    between atoms: _39  and  _40
REMARK   21  A    between atoms: _40  and  _41
REMARK   22  A    between atoms: _45  and  _47
REMARK   23  A    between atoms: _47  and  _48
REMARK   24  A    between atoms: _47  and  _50
REMARK   25  A    between atoms: _50  and  _51
REMARK   26  A    between atoms: _54  and  _56
REMARK   27  A    between atoms: _56  and  _57
REMARK   28  A    between atoms: _59  and  _61
REMARK   29  A    between atoms: _61  and  _62
REMARK   30  A    between atoms: _61  and  _64
REMARK   31  A    between atoms: _64  and  _65
REMARK   32  A    between atoms: _70  and  _72
REMARK   33  A    between atoms: _72  and  _73
REMARK   34  A    between atoms: _72  and  _75
REMARK   35  A    between atoms: _75  and  _76
REMARK   36  A    between atoms: _79  and  _81
REMARK   37  A    between atoms: _81  and  _82
REMARK   38  A    between atoms: _81  and  _84
REMARK   39  A    between atoms: _84  and  _85
REMARK   40  A    between atoms: _90  and  _91
REMARK   41  A    between atoms: _93  and  _95
REMARK   42  A    between atoms: _95  and  _96
REMARK   43  A    between atoms: _95  and  _98
REMARK   44  A    between atoms: _98  and  _99
REMARK   45  A    between atoms: _104  and  _106
REMARK   46  A    between atoms: _106  and  _107
REMARK   47  A    between atoms: _106  and  _109
REMARK   48  A    between atoms: _109  and  _110
REMARK   49  A    between atoms: _113  and  _115
REMARK   50  A    between atoms: _115  and  _116
REMARK   51  A    between atoms: _115  and  _118
REMARK   52  A    between atoms: _118  and  _119
REMARK   53  A    between atoms: _122  and  _124
REMARK   54  A    between atoms: _124  and  _125
REMARK   55  A    between atoms: _124  and  _127
REMARK   56  A    between atoms: _127  and  _128
REMARK   57  A    between atoms: _131  and  _133
REMARK   58  A    between atoms: _133  and  _134
REMARK   59  A    between atoms: _133  and  _136
REMARK   60  A    between atoms: _136  and  _137
REMARK   61  A    between atoms: _139  and  _141
REMARK   62  A    between atoms: _141  and  _142
REMARK   63  A    between atoms: _144  and  _146
REMARK   64  A    between atoms: _146  and  _147
REMARK   65  A    between atoms: _149  and  _151
REMARK   66  A    between atoms: _151  and  _152
REMARK   67  A    between atoms: _151  and  _154
REMARK   68  A    between atoms: _154  and  _155
REMARK   69  A    between atoms: _160  and  _161
REMARK   70  A    between atoms: _163  and  _165
REMARK   71  A    between atoms: _165  and  _166
REMARK   72  A    between atoms: _165  and  _168
REMARK   73  A    between atoms: _168  and  _169
REMARK   74  A    between atoms: _169  and  _170
REMARK   75  A    between atoms: _175  and  _177
REMARK   76  A    between atoms: _177  and  _178
REMARK   77  A    between atoms: _177  and  _180
REMARK   78  A    between atoms: _180  and  _181
REMARK   79  A    between atoms: _181  and  _182
REMARK   80  A    between atoms: _184  and  _186
REMARK   81  A    between atoms: _186  and  _187
REMARK   82  A    between atoms: _190  and  _192
REMARK   83  A    between atoms: _192  and  _193
REMARK   84  A    between atoms: _192  and  _195
REMARK   85  A    between atoms: _195  and  _196
REMARK   86  A    between atoms: _202  and  _204
REMARK   87  A    between atoms: _204  and  _205
REMARK   88  A    between atoms: _204  and  _207
REMARK   89  A    between atoms: _207  and  _208
REMARK   90  A    between atoms: _211  and  _213
REMARK   91  A    between atoms: _213  and  _214
REMARK   92  A    between atoms: _213  and  _216
REMARK   93  A    between atoms: _216  and  _217
REMARK   94  A    between atoms: _217  and  _218
REMARK   95  A    between atoms: _221  and  _223
REMARK   96  A    between atoms: _223  and  _224
REMARK   97  A    between atoms: _223  and  _226
REMARK   98  A    between atoms: _228  and  _230
REMARK   99  A    between atoms: _230  and  _231
REMARK  100  A    between atoms: _230  and  _233
REMARK  101  A    between atoms: _233  and  _234
REMARK  102  A    between atoms: _237  and  _239
REMARK  103  A    between atoms: _239  and  _240
REMARK  104  A    between atoms: _239  and  _242
REMARK  105  A    between atoms: _242  and  _243
REMARK  106  A    between atoms: _245  and  _247
REMARK  107  A    between atoms: _247  and  _248
REMARK  108  A    between atoms: _247  and  _250
REMARK  109  A    between atoms: _250  and  _251
REMARK  110  A    between atoms: _254  and  _256
REMARK  111  A    between atoms: _256  and  _257
REMARK  112  A    between atoms: _256  and  _259
REMARK  113  A    between atoms: _259  and  _260
REMARK  114  A    between atoms: _260  and  _261
REMARK  115  A    between atoms: _266  and  _268
REMARK  116  A    between atoms: _268  and  _269
REMARK  117  A    between atoms: _268  and  _271
REMARK  118  A    between atoms: _271  and  _272
REMARK  119  A    between atoms: _272  and  _273
REMARK  120  A    between atoms: _278  and  _280
REMARK  121  A    between atoms: _280  and  _281
REMARK  122  A    between atoms: _283  and  _285
REMARK  123  A    between atoms: _285  and  _286
REMARK  124  A    between atoms: _285  and  _288
REMARK  125  A    between atoms: _288  and  _289
REMARK  126  A    between atoms: _291  and  _293
REMARK  127  A    between atoms: _293  and  _294
REMARK  128  A    between atoms: _293  and  _296
REMARK  129  A    between atoms: _296  and  _297
REMARK  130  A    between atoms: _297  and  _298
REMARK  131  A    between atoms: _298  and  _299
REMARK  132  A    between atoms: _308  and  _310
REMARK  133  A    between atoms: _310  and  _311
REMARK  134  A    between atoms: _314  and  _316
REMARK  135  A    between atoms: _316  and  _317
REMARK  136  A    between atoms: _316  and  _319
REMARK  137  A    between atoms: _322  and  _324
REMARK  138  A    between atoms: _324  and  _325
REMARK  139  A    between atoms: _327  and  _329
REMARK  140  A    between atoms: _329  and  _330
REMARK  141  A    between atoms: _332  and  _334
REMARK  142  A    between atoms: _334  and  _335
REMARK  143  A    between atoms: _334  and  _337
REMARK  144  A    between atoms: _337  and  _338
REMARK  145  A    between atoms: _341  and  _343
REMARK  146  A    between atoms: _343  and  _344
REMARK  147  A    between atoms: _347  and  _349
REMARK  148  A    between atoms: _349  and  _350
REMARK  149  A    between atoms: _349  and  _352
REMARK  150  A    between atoms: _355  and  _357
REMARK  151  A    between atoms: _357  and  _358
REMARK  152  A    between atoms: _360  and  _362
REMARK  153  A    between atoms: _362  and  _363
REMARK  154  A    between atoms: _362  and  _365
REMARK  155  A    between atoms: _365  and  _366
REMARK  156  A    between atoms: _366  and  _367
REMARK  157  A    between atoms: _370  and  _372
REMARK  158  A    between atoms: _372  and  _373
REMARK  159  A    between atoms: _372  and  _375
REMARK  160  A    between atoms: _375  and  _376
REMARK  161  A    between atoms: _376  and  _377
REMARK  162  A    between atoms: _379  and  _381
REMARK  163  A    between atoms: _381  and  _382
REMARK  164  A    between atoms: _381  and  _384
REMARK  165  A    between atoms: _384  and  _385
REMARK  166  A    between atoms: _390  and  _391
REMARK  167  A    between atoms: _393  and  _395
REMARK  168  A    between atoms: _395  and  _396
REMARK  169  A    between atoms: _395  and  _398
REMARK  170  A    between atoms: _398  and  _399
REMARK  171  A    between atoms: _402  and  _404
REMARK  172  A    between atoms: _404  and  _405
REMARK  173  A    between atoms: _404  and  _407
REMARK  174  A    between atoms: _407  and  _408
REMARK  175  A    between atoms: _408  and  _409
REMARK  176  A    between atoms: _411  and  _413
REMARK  177  A    between atoms: _413  and  _414
REMARK  178  A    between atoms: _416  and  _418
REMARK  179  A    between atoms: _418  and  _419
REMARK  180  A    between atoms: _418  and  _421
REMARK  181  A    between atoms: _424  and  _426
REMARK  182  A    between atoms: _426  and  _427
REMARK  183  A    between atoms: _429  and  _431
REMARK  184  A    between atoms: _431  and  _432
REMARK  185  A    between atoms: _431  and  _434
REMARK  186  A    between atoms: _434  and  _435
REMARK  187  A    between atoms: _441  and  _443
REMARK  188  A    between atoms: _443  and  _444
REMARK  189  A    between atoms: _443  and  _446
REMARK  190  A    between atoms: _446  and  _447
REMARK  191  A    between atoms: _450  and  _452
REMARK  192  A    between atoms: _452  and  _453
REMARK  193  A    between atoms: _452  and  _455
REMARK  194  A    between atoms: _457  and  _459
REMARK  195  A    between atoms: _459  and  _460
REMARK  196  A    between atoms: _459  and  _462
REMARK  197  A    between atoms: _465  and  _467
REMARK  198  A    between atoms: _467  and  _468
REMARK  199  A    between atoms: _467  and  _470
REMARK  200  A    between atoms: _470  and  _471
REMARK  201  A    between atoms: _474  and  _476
REMARK  202  A    between atoms: _476  and  _477
REMARK  203  A    between atoms: _476  and  _479
REMARK  204  A    between atoms: _479  and  _480
REMARK  205  A    between atoms: _480  and  _481
REMARK  206  A    between atoms: _481  and  _482
REMARK                            x       y       z     vdW  Elec       q    Type
REMARK                         _______ _______ _______ _____ _____    ______ ____
ROOT
ATOM      1  CA  MET A   1      13.466   5.469  13.910  0.00  0.00    +0.134 C 
ENDROOT
BRANCH   1   2
ATOM      2  N   MET A   1      14.871   5.243  13.592  0.00  0.00    -0.239 NA
ATOM      3  H   MET A   1      15.570   5.935  13.931  0.00  0.00    +0.142 HD
ENDBRANCH   1   2
BRANCH   1   4
ATOM      4  C   MET A   1      12.853   6.568  13.059  0.00  0.00    +0.224 C 
ATOM      5  O   MET A   1      13.236   7.734  13.231  0.00  0.00    -0.287 OA
ENDBRANCH   1   4
BRANCH   1   6
ATOM      6  CB  MET A   1      13.318   5.940  15.361  0.00  0.00    +0.037 C 
BRANCH   6   7
ATOM      7  CG  MET A   1      13.962   5.001  16.350  0.00  0.00    +0.059 C 
BRANCH   7   8
ATOM      8  SD  MET A   1      13.659   5.533  18.073  0.00  0.00    -0.139 S 
ATOM      9  CE  MET A   1      15.069   6.644  18.221  0.00  0.00    +0.069 C 
ENDBRANCH   7   8
ENDBRANCH   6   7
ENDBRANCH   1   6
TORSDOF 5
REMARK  Name = ../refined-set-2016/3gc4/3gc4_pocket.pdb
REMARK  206 active torsions:
REMARK  status: ('A' for Active; 'I' for Inactive)
REMARK    1  A    between atoms: _1  and  _3
REMARK    2  A    between atoms: _3  and  _4
REMARK    3  A    between atoms: _3  and  _6
REMARK    4  A    between atoms: _6  and  _7
REMARK    5  A    between atoms: _7  and  _8
REMARK    6  A    between atoms: _10  and  _12
REMARK    7  A    between atoms: _12  and  _13
REMARK    8  A    between atoms: _12  and  _15
REMARK    9  A    between atoms: _18  and  _20
REMARK   10  A    between atoms: _20  and  _21
REMARK   11  A    between atoms: _23  and  _25
REMARK   12  A    between atoms: _25  and  _26
REMARK   13  A    between atoms: _25  and  _28
REMARK   14  A    between atoms: _28  and  _29
REMARK   15  A    between atoms: _32  and  _34
REMARK   16  A    between atoms: _34  and  _35
REMARK   17  A    between atoms: _34  and  _37
REMARK   18  A    between atoms: _37  and  _38
REMARK   19  A    between atoms: _38  and  _39
REMARK   20  A    between atoms: _39  and  _40
REMARK   21  A    between atoms: _40  and  _41
REMARK   22  A    between atoms: _45  and  _47
REMARK   23  A    between atoms: _47  and  _48
REMARK   24  A    between atoms: _47  and  _50
REMARK   25  A    between atoms: _50  and  _51
REMARK   26  A    between atoms: _54  and  _56
REMARK   27  A    between atoms: _56  and  _57
REMARK   28  A    between atoms: _59  and  _61
REMARK   29  A    between atoms: _61  and  _62
REMARK   30  A    between atoms: _61  and  _64
REMARK   31  A    between atoms: _64  and  _65
REMARK   32  A    between atoms: _70  and  _72
REMARK   33  A    between atoms: _72  and  _73
REMARK   34  A    between atoms: _72  and  _75
REMARK   35  A    between atoms: _75  and  _76
REMARK   36  A    between atoms: _79  and  _81
REMARK   37  A    between atoms: _81  and  _82
REMARK   38  A    between atoms: _81  and  _84
REMARK   39  A    between atoms: _84  and  _85
REMARK   40  A    between atoms: _90  and  _91
REMARK   41  A    between atoms: _93  and  _95
REMARK   42  A    between atoms: _95  and  _96
REMARK   43  A    between atoms: _95  and  _98
REMARK   44  A    between atoms: _98  and  _99
REMARK   45  A    between atoms: _104  and  _106
REMARK   46  A    between atoms: _106  and  _107
REMARK   47  A    between atoms: _106  and  _109
REMARK   48  A    between atoms: _109  and  _110
REMARK   49  A    between atoms: _113  and  _115
REMARK   50  A    between atoms: _115  and  _116
REMARK   51  A    between atoms: _115  and  _118
REMARK   52  A    between atoms: _118  and  _119
REMARK   53  A    between atoms: _122  and  _124
REMARK   54  A    between atoms: _124  and  _125
REMARK   55  A    between atoms: _124  and  _127
REMARK   56  A    between atoms: _127  and  _128
REMARK   57  A    between atoms: _131  and  _133
REMARK   58  A    between atoms: _133  and  _134
REMARK   59  A    between atoms: _133  and  _136
REMARK   60  A    between atoms: _136  and  _137
REMARK   61  A    between atoms: _139  and  _141
REMARK   62  A    between atoms: _141  and  _142
REMARK   63  A    between atoms: _144  and  _146
REMARK   64  A    between atoms: _146  and  _147
REMARK   65  A    between atoms: _149  and  _151
REMARK   66  A    between atoms: _151  and  _152
REMARK   67  A    between atoms: _151  and  _154
REMARK   68  A    between atoms: _154  and  _155
REMARK   69  A    between atoms: _160  and  _161
REMARK   70  A    between atoms: _163  and  _165
REMARK   71  A    between atoms: _165  and  _166
REMARK   72  A    between atoms: _165  and  _168
REMARK   73  A    between atoms: _168  and  _169
REMARK   74  A    between atoms: _169  and  _170
REMARK   75  A    between atoms: _175  and  _177
REMARK   76  A    between atoms: _177  and  _178
REMARK   77  A    between atoms: _177  and  _180
REMARK   78  A    between atoms: _180  and  _181
REMARK   79  A    between atoms: _181  and  _182
REMARK   80  A    between atoms: _184  and  _186
REMARK   81  A    between atoms: _186  and  _187
REMARK   82  A    between atoms: _190  and  _192
REMARK   83  A    between atoms: _192  and  _193
REMARK   84  A    between atoms: _192  and  _195
REMARK   85  A    between atoms: _195  and  _196
REMARK   86  A    between atoms: _202  and  _204
REMARK   87  A    between atoms: _204  and  _205
REMARK   88  A    between atoms: _204  and  _207
REMARK   89  A    between atoms: _207  and  _208
REMARK   90  A    between atoms: _211  and  _213
REMARK   91  A    between atoms: _213  and  _214
REMARK   92  A    between atoms: _213  and  _216
REMARK   93  A    between atoms: _216  and  _217
REMARK   94  A    between atoms: _217  and  _218
REMARK   95  A    between atoms: _221  and  _223
REMARK   96  A    between atoms: _223  and  _224
REMARK   97  A    between atoms: _223  and  _226
REMARK   98  A    between atoms: _228  and  _230
REMARK   99  A    between atoms: _230  and  _231
REMARK  100  A    between atoms: _230  and  _233
REMARK  101  A    between atoms: _233  and  _234
REMARK  102  A    between atoms: _237  and  _239
REMARK  103  A    between atoms: _239  and  _240
REMARK  104  A    between atoms: _239  and  _242
REMARK  105  A    between atoms: _242  and  _243
REMARK  106  A    between atoms: _245  and  _247
REMARK  107  A    between atoms: _247  and  _248
REMARK  108  A    between atoms: _247  and  _250
REMARK  109  A    between atoms: _250  and  _251
REMARK  110  A    between atoms: _254  and  _256
REMARK  111  A    between atoms: _256  and  _257
REMARK  112  A    between atoms: _256  and  _259
REMARK  113  A    between atoms: _259  and  _260
REMARK  114  A    between atoms: _260  and  _261
REMARK  115  A    between atoms: _266  and  _268
REMARK  116  A    between atoms: _268  and  _269
REMARK  117  A    between atoms: _268  and  _271
REMARK  118  A    between atoms: _271  and  _272
REMARK  119  A    between atoms: _272  and  _273
REMARK  120  A    between atoms: _278  and  _280
REMARK  121  A    between atoms: _280  and  _281
REMARK  122  A    between atoms: _283  and  _285
REMARK  123  A    between atoms: _285  and  _286
REMARK  124  A    between atoms: _285  and  _288
REMARK  125  A    between atoms: _288  and  _289
REMARK  126  A    between atoms: _291  and  _293
REMARK  127  A    between atoms: _293  and  _294
REMARK  128  A    between atoms: _293  and  _296
REMARK  129  A    between atoms: _296  and  _297
REMARK  130  A    between atoms: _297  and  _298
REMARK  131  A    between atoms: _298  and  _299
REMARK  132  A    between atoms: _308  and  _310
REMARK  133  A    between atoms: _310  and  _311
REMARK  134  A    between atoms: _314  and  _316
REMARK  135  A    between atoms: _316  and  _317
REMARK  136  A    between atoms: _316  and  _319
REMARK  137  A    between atoms: _322  and  _324
REMARK  138  A    between atoms: _324  and  _325
REMARK  139  A    between atoms: _327  and  _329
REMARK  140  A    between atoms: _329  and  _330
REMARK  141  A    between atoms: _332  and  _334
REMARK  142  A    between atoms: _334  and  _335
REMARK  143  A    between atoms: _334  and  _337
REMARK  144  A    between atoms: _337  and  _338
REMARK  145  A    between atoms: _341  and  _343
REMARK  146  A    between atoms: _343  and  _344
REMARK  147  A    between atoms: _347  and  _349
REMARK  148  A    between atoms: _349  and  _350
REMARK  149  A    between atoms: _349  and  _352
REMARK  150  A    between atoms: _355  and  _357
REMARK  151  A    between atoms: _357  and  _358
REMARK  152  A    between atoms: _360  and  _362
REMARK  153  A    between atoms: _362  and  _363
REMARK  154  A    between atoms: _362  and  _365
REMARK  155  A    between atoms: _365  and  _366
REMARK  156  A    between atoms: _366  and  _367
REMARK  157  A    between atoms: _370  and  _372
REMARK  158  A    between atoms: _372  and  _373
REMARK  159  A    between atoms: _372  and  _375
REMARK  160  A    between atoms: _375  and  _376
REMARK  161  A    between atoms: _376  and  _377
REMARK  162  A    between atoms: _379  and  _381
REMARK  163  A    between atoms: _381  and  _382
REMARK  164  A    between atoms: _381  and  _384
REMARK  165  A    between atoms: _384  and  _385
REMARK  166  A    between atoms: _390  and  _391
REMARK  167  A    between atoms: _393  and  _395
REMARK  168  A    between atoms: _395  and  _396
REMARK  169  A    between atoms: _395  and  _398
REMARK  170  A    between atoms: _398  and  _399
REMARK  171  A    between atoms: _402  and  _404
REMARK  172  A    between atoms: _404  and  _405
REMARK  173  A    between atoms: _404  and  _407
REMARK  174  A    between atoms: _407  and  _408
REMARK  175  A    between atoms: _408  and  _409
REMARK  176  A    between atoms: _411  and  _413
REMARK  177  A    between atoms: _413  and  _414
REMARK  178  A    between atoms: _416  and  _418
REMARK  179  A    between atoms: _418  and  _419
REMARK  180  A    between atoms: _418  and  _421
REMARK  181  A    between atoms: _424  and  _426
REMARK  182  A    between atoms: _426  and  _427
REMARK  183  A    between atoms: _429  and  _431
REMARK  184  A    between atoms: _431  and  _432
REMARK  185  A    between atoms: _431  and  _434
REMARK  186  A    between atoms: _434  and  _435
REMARK  187  A    between atoms: _441  and  _443
REMARK  188  A    between atoms: _443  and  _444
REMARK  189  A    between atoms: _443  and  _446
REMARK  190  A    between atoms: _446  and  _447
REMARK  191  A    between atoms: _450  and  _452
REMARK  192  A    between atoms: _452  and  _453
REMARK  193  A    between atoms: _452  and  _455
REMARK  194  A    between atoms: _457  and  _459
REMARK  195  A    between atoms: _459  and  _460
REMARK  196  A    between atoms: _459  and  _462
REMARK  197  A    between atoms: _465  and  _467
REMARK  198  A    between atoms: _467  and  _468
REMARK  199  A    between atoms: _467  and  _470
REMARK  200  A    between atoms: _470  and  _471
REMARK  201  A    between atoms: _474  and  _476
REMARK  202  A    between atoms: _476  and  _477
REMARK  203  A    between atoms: _476  and  _479
REMARK  204  A    between atoms: _479  and  _480
REMARK  205  A    between atoms: _480  and  _481
REMARK  206  A    between atoms: _481  and  _482
REMARK                            x       y       z     vdW  Elec       q    Type
REMARK                         _______ _______ _______ _____ _____    ______ ____
ROOT
ATOM      1  CA  GLY A   2       5.949  10.822  13.133  0.00  0.00    +0.176 C 
ENDROOT
BRANCH   1   3
ATOM      2  C   VAL A   1       8.266  10.609  12.341  0.00  0.00    +0.238 C 
ATOM      3  N   GLY A   2       7.368  10.617  13.325  0.00  0.00    -0.296 N 
ATOM      4  H   GLY A   2       7.710  10.466  14.296  0.00  0.00    +0.150 HD
ATOM      5  O   VAL A   1       7.960  10.755  11.156  0.00  0.00    -0.274 OA
BRANCH   2   6
ATOM      6  CA  VAL A   1       9.714  10.421  12.779  0.00  0.00    +0.145 C 
BRANCH   6   7
ATOM      7  CB  VAL A   1      10.432  11.792  12.734  0.00  0.00    +0.025 C 
ATOM      8  CG2 VAL A   1       9.642  12.830  13.511  0.00  0.00    +0.002 C 
ATOM      9  CG1 VAL A   1      11.833  11.662  13.301  0.00  0.00    +0.002 C 
ENDBRANCH   6   7
BRANCH   6  10
ATOM     10  N   VAL A   1      10.462   9.453  11.988  0.00  0.00    -0.238 NA
ATOM     11  H   VAL A   1      10.980   9.773  11.145  0.00  0.00    +0.142 HD
ENDBRANCH   6  10
ENDBRANCH   2   6
ENDBRANCH   1   3
BRANCH   1  12
ATOM     12  C   GLY A   2       5.340  11.786  14.136  0.00  0.00    +0.243 C 
ATOM     13  O   GLY A   2       4.542  11.356  14.975  0.00  0.00    -0.273 OA
ATOM     14  N   THR A   3       5.709  13.044  14.020  0.00  0.00    -0.296 N 
ATOM     15  H   THR A   3       6.409  13.239  13.276  0.00  0.00    +0.150 HD
BRANCH  14  16
ATOM     16  CA  THR A   3       5.273  14.197  14.787  0.00  0.00    +0.164 C 
BRANCH  16  17
ATOM     17  C   THR A   3       3.769  14.357  14.994  0.00  0.00    +0.229 C 
ATOM     18  O   THR A   3       3.340  14.464  16.157  0.00  0.00    -0.286 OA
ENDBRANCH  16  17
BRANCH  16  19
ATOM     19  CB  THR A   3       5.858  15.449  14.080  0.00  0.00    +0.136 C 
ATOM     20  CG2 THR A   3       5.124  16.705  14.463  0.00  0.00    +0.034 C 
BRANCH  19  21
ATOM     21  OG1 THR A   3       7.217  15.621  14.506  0.00  0.00    -0.382 OA
ATOM     22  HG1 THR A   3       7.603  16.417  14.062  0.00  0.00    +0.210 HD
ENDBRANCH  19  21
ENDBRANCH  16  19
ENDBRANCH  14  16
ENDBRANCH   1  12
TORSDOF 9
REMARK  Name = ../refined-set-2016/3gc4/3gc4_pocket.pdb
REMARK  206 active torsions:
REMARK  status: ('A' for Active; 'I' for Inactive)
REMARK    1  A    between atoms: _1  and  _3
REMARK    2  A    between atoms: _3  and  _4
REMARK    3  A    between atoms: _3  and  _6
REMARK    4  A    between atoms: _6  and  _7
REMARK    5  A    between atoms: _7  and  _8
REMARK    6  A    between atoms: _10  and  _12
REMARK    7  A    between atoms: _12  and  _13
REMARK    8  A    between atoms: _12  and  _15
REMARK    9  A    between atoms: _18  and  _20
REMARK   10  A    between atoms: _20  and  _21
REMARK   11  A    between atoms: _23  and  _25
REMARK   12  A    between atoms: _25  and  _26
REMARK   13  A    between atoms: _25  and  _28
REMARK   14  A    between atoms: _28  and  _29
REMARK   15  A    between atoms: _32  and  _34
REMARK   16  A    between atoms: _34  and  _35
REMARK   17  A    between atoms: _34  and  _37
REMARK   18  A    between atoms: _37  and  _38
REMARK   19  A    between atoms: _38  and  _39
REMARK   20  A    between atoms: _39  and  _40
REMARK   21  A    between atoms: _40  and  _41
REMARK   22  A    between atoms: _45  and  _47
REMARK   23  A    between atoms: _47  and  _48
REMARK   24  A    between atoms: _47  and  _50
REMARK   25  A    between atoms: _50  and  _51
REMARK   26  A    between atoms: _54  and  _56
REMARK   27  A    between atoms: _56  and  _57
REMARK   28  A    between atoms: _59  and  _61
REMARK   29  A    between atoms: _61  and  _62
REMARK   30  A    between atoms: _61  and  _64
REMARK   31  A    between atoms: _64  and  _65
REMARK   32  A    between atoms: _70  and  _72
REMARK   33  A    between atoms: _72  and  _73
REMARK   34  A    between atoms: _72  and  _75
REMARK   35  A    between atoms: _75  and  _76
REMARK   36  A    between atoms: _79  and  _81
REMARK   37  A    between atoms: _81  and  _82
REMARK   38  A    between atoms: _81  and  _84
REMARK   39  A    between atoms: _84  and  _85
REMARK   40  A    between atoms: _90  and  _91
REMARK   41  A    between atoms: _93  and  _95
REMARK   42  A    between atoms: _95  and  _96
REMARK   43  A    between atoms: _95  and  _98
REMARK   44  A    between atoms: _98  and  _99
REMARK   45  A    between atoms: _104  and  _106
REMARK   46  A    between atoms: _106  and  _107
REMARK   47  A    between atoms: _106  and  _109
REMARK   48  A    between atoms: _109  and  _110
REMARK   49  A    between atoms: _113  and  _115
REMARK   50  A    between atoms: _115  and  _116
REMARK   51  A    between atoms: _115  and  _118
REMARK   52  A    between atoms: _118  and  _119
REMARK   53  A    between atoms: _122  and  _124
REMARK   54  A    between atoms: _124  and  _125
REMARK   55  A    between atoms: _124  and  _127
REMARK   56  A    between atoms: _127  and  _128
REMARK   57  A    between atoms: _131  and  _133
REMARK   58  A    between atoms: _133  and  _134
REMARK   59  A    between atoms: _133  and  _136
REMARK   60  A    between atoms: _136  and  _137
REMARK   61  A    between atoms: _139  and  _141
REMARK   62  A    between atoms: _141  and  _142
REMARK   63  A    between atoms: _144  and  _146
REMARK   64  A    between atoms: _146  and  _147
REMARK   65  A    between atoms: _149  and  _151
REMARK   66  A    between atoms: _151  and  _152
REMARK   67  A    between atoms: _151  and  _154
REMARK   68  A    between atoms: _154  and  _155
REMARK   69  A    between atoms: _160  and  _161
REMARK   70  A    between atoms: _163  and  _165
REMARK   71  A    between atoms: _165  and  _166
REMARK   72  A    between atoms: _165  and  _168
REMARK   73  A    between atoms: _168  and  _169
REMARK   74  A    between atoms: _169  and  _170
REMARK   75  A    between atoms: _175  and  _177
REMARK   76  A    between atoms: _177  and  _178
REMARK   77  A    between atoms: _177  and  _180
REMARK   78  A    between atoms: _180  and  _181
REMARK   79  A    between atoms: _181  and  _182
REMARK   80  A    between atoms: _184  and  _186
REMARK   81  A    between atoms: _186  and  _187
REMARK   82  A    between atoms: _190  and  _192
REMARK   83  A    between atoms: _192  and  _193
REMARK   84  A    between atoms: _192  and  _195
REMARK   85  A    between atoms: _195  and  _196
REMARK   86  A    between atoms: _202  and  _204
REMARK   87  A    between atoms: _204  and  _205
REMARK   88  A    between atoms: _204  and  _207
REMARK   89  A    between atoms: _207  and  _208
REMARK   90  A    between atoms: _211  and  _213
REMARK   91  A    between atoms: _213  and  _214
REMARK   92  A    between atoms: _213  and  _216
REMARK   93  A    between atoms: _216  and  _217
REMARK   94  A    between atoms: _217  and  _218
REMARK   95  A    between atoms: _221  and  _223
REMARK   96  A    between atoms: _223  and  _224
REMARK   97  A    between atoms: _223  and  _226
REMARK   98  A    between atoms: _228  and  _230
REMARK   99  A    between atoms: _230  and  _231
REMARK  100  A    between atoms: _230  and  _233
REMARK  101  A    between atoms: _233  and  _234
REMARK  102  A    between atoms: _237  and  _239
REMARK  103  A    between atoms: _239  and  _240
REMARK  104  A    between atoms: _239  and  _242
REMARK  105  A    between atoms: _242  and  _243
REMARK  106  A    between atoms: _245  and  _247
REMARK  107  A    between atoms: _247  and  _248
REMARK  108  A    between atoms: _247  and  _250
REMARK  109  A    between atoms: _250  and  _251
REMARK  110  A    between atoms: _254  and  _256
REMARK  111  A    between atoms: _256  and  _257
REMARK  112  A    between atoms: _256  and  _259
REMARK  113  A    between atoms: _259  and  _260
REMARK  114  A    between atoms: _260  and  _261
REMARK  115  A    between atoms: _266  and  _268
REMARK  116  A    between atoms: _268  and  _269
REMARK  117  A    between atoms: _268  and  _271
REMARK  118  A    between atoms: _271  and  _272
REMARK  119  A    between atoms: _272  and  _273
REMARK  120  A    between atoms: _278  and  _280
REMARK  121  A    between atoms: _280  and  _281
REMARK  122  A    between atoms: _283  and  _285
REMARK  123  A    between atoms: _285  and  _286
REMARK  124  A    between atoms: _285  and  _288
REMARK  125  A    between atoms: _288  and  _289
REMARK  126  A    between atoms: _291  and  _293
REMARK  127  A    between atoms: _293  and  _294
REMARK  128  A    between atoms: _293  and  _296
REMARK  129  A    between atoms: _296  and  _297
REMARK  130  A    between atoms: _297  and  _298
REMARK  131  A    between atoms: _298  and  _299
REMARK  132  A    between atoms: _308  and  _310
REMARK  133  A    between atoms: _310  and  _311
REMARK  134  A    between atoms: _314  and  _316
REMARK  135  A    between atoms: _316  and  _317
REMARK  136  A    between atoms: _316  and  _319
REMARK  137  A    between atoms: _322  and  _324
REMARK  138  A    between atoms: _324  and  _325
REMARK  139  A    between atoms: _327  and  _329
REMARK  140  A    between atoms: _329  and  _330
REMARK  141  A    between atoms: _332  and  _334
REMARK  142  A    between atoms: _334  and  _335
REMARK  143  A    between atoms: _334  and  _337
REMARK  144  A    between atoms: _337  and  _338
REMARK  145  A    between atoms: _341  and  _343
REMARK  146  A    between atoms: _343  and  _344
REMARK  147  A    between atoms: _347  and  _349
REMARK  148  A    between atoms: _349  and  _350
REMARK  149  A    between atoms: _349  and  _352
REMARK  150  A    between atoms: _355  and  _357
REMARK  151  A    between atoms: _357  and  _358
REMARK  152  A    between atoms: _360  and  _362
REMARK  153  A    between atoms: _362  and  _363
REMARK  154  A    between atoms: _362  and  _365
REMARK  155  A    between atoms: _365  and  _366
REMARK  156  A    between atoms: _366  and  _367
REMARK  157  A    between atoms: _370  and  _372
REMARK  158  A    between atoms: _372  and  _373
REMARK  159  A    between atoms: _372  and  _375
REMARK  160  A    between atoms: _375  and  _376
REMARK  161  A    between atoms: _376  and  _377
REMARK  162  A    between atoms: _379  and  _381
REMARK  163  A    between atoms: _381  and  _382
REMARK  164  A    between atoms: _381  and  _384
REMARK  165  A    between atoms: _384  and  _385
REMARK  166  A    between atoms: _390  and  _391
REMARK  167  A    between atoms: _393  and  _395
REMARK  168  A    between atoms: _395  and  _396
REMARK  169  A    between atoms: _395  and  _398
REMARK  170  A    between atoms: _398  and  _399
REMARK  171  A    between atoms: _402  and  _404
REMARK  172  A    between atoms: _404  and  _405
REMARK  173  A    between atoms: _404  and  _407
REMARK  174  A    between atoms: _407  and  _408
REMARK  175  A    between atoms: _408  and  _409
REMARK  176  A    between atoms: _411  and  _413
REMARK  177  A    between atoms: _413  and  _414
REMARK  178  A    between atoms: _416  and  _418
REMARK  179  A    between atoms: _418  and  _419
REMARK  180  A    between atoms: _418  and  _421
REMARK  181  A    between atoms: _424  and  _426
REMARK  182  A    between atoms: _426  and  _427
REMARK  183  A    between atoms: _429  and  _431
REMARK  184  A    between atoms: _431  and  _432
REMARK  185  A    between atoms: _431  and  _434
REMARK  186  A    between atoms: _434  and  _435
REMARK  187  A    between atoms: _441  and  _443
REMARK  188  A    between atoms: _443  and  _444
REMARK  189  A    between atoms: _443  and  _446
REMARK  190  A    between atoms: _446  and  _447
REMARK  191  A    between atoms: _450  and  _452
REMARK  192  A    between atoms: _452  and  _453
REMARK  193  A    between atoms: _452  and  _455
REMARK  194  A    between atoms: _457  and  _459
REMARK  195  A    between atoms: _459  and  _460
REMARK  196  A    between atoms: _459  and  _462
REMARK  197  A    between atoms: _465  and  _467
REMARK  198  A    between atoms: _467  and  _468
REMARK  199  A    between atoms: _467  and  _470
REMARK  200  A    between atoms: _470  and  _471
REMARK  201  A    between atoms: _474  and  _476
REMARK  202  A    between atoms: _476  and  _477
REMARK  203  A    between atoms: _476  and  _479
REMARK  204  A    between atoms: _479  and  _480
REMARK  205  A    between atoms: _480  and  _481
REMARK  206  A    between atoms: _481  and  _482
REMARK                            x       y       z     vdW  Elec       q    Type
REMARK                         _______ _______ _______ _____ _____    ______ ____
ROOT
ATOM      1  CG  LYS A   1       4.654  14.138   7.892  0.00  0.00    -0.000 C 
ENDROOT
BRANCH   1   2
ATOM      2  CB  LYS A   1       4.816  13.254   6.661  0.00  0.00    +0.025 C 
BRANCH   2   3
ATOM      3  CA  LYS A   1       4.283  11.837   6.797  0.00  0.00    +0.133 C 
BRANCH   3   4
ATOM      4  N   LYS A   1       5.006  11.089   7.831  0.00  0.00    -0.239 NA
ATOM      5  H   LYS A   1       5.803  11.528   8.335  0.00  0.00    +0.142 HD
ENDBRANCH   3   4
BRANCH   3   6
ATOM      6  C   LYS A   1       4.308  11.110   5.451  0.00  0.00    +0.224 C 
ATOM      7  O   LYS A   1       5.352  10.667   4.985  0.00  0.00    -0.287 OA
ENDBRANCH   3   6
ENDBRANCH   2   3
ENDBRANCH   1   2
BRANCH   1   8
ATOM      8  CD  LYS A   1       5.375  15.458   7.774  0.00  0.00    -0.024 C 
BRANCH   8   9
ATOM      9  CE  LYS A   1       4.758  16.609   8.549  0.00  0.00    -0.086 C 
BRANCH   9  10
ATOM     10  NZ  LYS A   1       4.268  16.227   9.893  0.00  0.00    +0.380 N 
ATOM     11  HZ1 LYS A   1       5.061  15.862  10.459  0.00  0.00    -0.089 HD
ATOM     12  HZ2 LYS A   1       3.861  17.061  10.362  0.00  0.00    -0.089 HD
ATOM     13  HZ3 LYS A   1       3.540  15.491   9.799  0.00  0.00    -0.089 HD
ENDBRANCH   9  10
ENDBRANCH   8   9
ENDBRANCH   1   8
TORSDOF 7
REMARK  Name = ../refined-set-2016/3gc4/3gc4_pocket.pdb
REMARK  206 active torsions:
REMARK  status: ('A' for Active; 'I' for Inactive)
REMARK    1  A    between atoms: _1  and  _3
REMARK    2  A    between atoms: _3  and  _4
REMARK    3  A    between atoms: _3  and  _6
REMARK    4  A    between atoms: _6  and  _7
REMARK    5  A    between atoms: _7  and  _8
REMARK    6  A    between atoms: _10  and  _12
REMARK    7  A    between atoms: _12  and  _13
REMARK    8  A    between atoms: _12  and  _15
REMARK    9  A    between atoms: _18  and  _20
REMARK   10  A    between atoms: _20  and  _21
REMARK   11  A    between atoms: _23  and  _25
REMARK   12  A    between atoms: _25  and  _26
REMARK   13  A    between atoms: _25  and  _28
REMARK   14  A    between atoms: _28  and  _29
REMARK   15  A    between atoms: _32  and  _34
REMARK   16  A    between atoms: _34  and  _35
REMARK   17  A    between atoms: _34  and  _37
REMARK   18  A    between atoms: _37  and  _38
REMARK   19  A    between atoms: _38  and  _39
REMARK   20  A    between atoms: _39  and  _40
REMARK   21  A    between atoms: _40  and  _41
REMARK   22  A    between atoms: _45  and  _47
REMARK   23  A    between atoms: _47  and  _48
REMARK   24  A    between atoms: _47  and  _50
REMARK   25  A    between atoms: _50  and  _51
REMARK   26  A    between atoms: _54  and  _56
REMARK   27  A    between atoms: _56  and  _57
REMARK   28  A    between atoms: _59  and  _61
REMARK   29  A    between atoms: _61  and  _62
REMARK   30  A    between atoms: _61  and  _64
REMARK   31  A    between atoms: _64  and  _65
REMARK   32  A    between atoms: _70  and  _72
REMARK   33  A    between atoms: _72  and  _73
REMARK   34  A    between atoms: _72  and  _75
REMARK   35  A    between atoms: _75  and  _76
REMARK   36  A    between atoms: _79  and  _81
REMARK   37  A    between atoms: _81  and  _82
REMARK   38  A    between atoms: _81  and  _84
REMARK   39  A    between atoms: _84  and  _85
REMARK   40  A    between atoms: _90  and  _91
REMARK   41  A    between atoms: _93  and  _95
REMARK   42  A    between atoms: _95  and  _96
REMARK   43  A    between atoms: _95  and  _98
REMARK   44  A    between atoms: _98  and  _99
REMARK   45  A    between atoms: _104  and  _106
REMARK   46  A    between atoms: _106  and  _107
REMARK   47  A    between atoms: _106  and  _109
REMARK   48  A    between atoms: _109  and  _110
REMARK   49  A    between atoms: _113  and  _115
REMARK   50  A    between atoms: _115  and  _116
REMARK   51  A    between atoms: _115  and  _118
REMARK   52  A    between atoms: _118  and  _119
REMARK   53  A    between atoms: _122  and  _124
REMARK   54  A    between atoms: _124  and  _125
REMARK   55  A    between atoms: _124  and  _127
REMARK   56  A    between atoms: _127  and  _128
REMARK   57  A    between atoms: _131  and  _133
REMARK   58  A    between atoms: _133  and  _134
REMARK   59  A    between atoms: _133  and  _136
REMARK   60  A    between atoms: _136  and  _137
REMARK   61  A    between atoms: _139  and  _141
REMARK   62  A    between atoms: _141  and  _142
REMARK   63  A    between atoms: _144  and  _146
REMARK   64  A    between atoms: _146  and  _147
REMARK   65  A    between atoms: _149  and  _151
REMARK   66  A    between atoms: _151  and  _152
REMARK   67  A    between atoms: _151  and  _154
REMARK   68  A    between atoms: _154  and  _155
REMARK   69  A    between atoms: _160  and  _161
REMARK   70  A    between atoms: _163  and  _165
REMARK   71  A    between atoms: _165  and  _166
REMARK   72  A    between atoms: _165  and  _168
REMARK   73  A    between atoms: _168  and  _169
REMARK   74  A    between atoms: _169  and  _170
REMARK   75  A    between atoms: _175  and  _177
REMARK   76  A    between atoms: _177  and  _178
REMARK   77  A    between atoms: _177  and  _180
REMARK   78  A    between atoms: _180  and  _181
REMARK   79  A    between atoms: _181  and  _182
REMARK   80  A    between atoms: _184  and  _186
REMARK   81  A    between atoms: _186  and  _187
REMARK   82  A    between atoms: _190  and  _192
REMARK   83  A    between atoms: _192  and  _193
REMARK   84  A    between atoms: _192  and  _195
REMARK   85  A    between atoms: _195  and  _196
REMARK   86  A    between atoms: _202  and  _204
REMARK   87  A    between atoms: _204  and  _205
REMARK   88  A    between atoms: _204  and  _207
REMARK   89  A    between atoms: _207  and  _208
REMARK   90  A    between atoms: _211  and  _213
REMARK   91  A    between atoms: _213  and  _214
REMARK   92  A    between atoms: _213  and  _216
REMARK   93  A    between atoms: _216  and  _217
REMARK   94  A    between atoms: _217  and  _218
REMARK   95  A    between atoms: _221  and  _223
REMARK   96  A    between atoms: _223  and  _224
REMARK   97  A    between atoms: _223  and  _226
REMARK   98  A    between atoms: _228  and  _230
REMARK   99  A    between atoms: _230  and  _231
REMARK  100  A    between atoms: _230  and  _233
REMARK  101  A    between atoms: _233  and  _234
REMARK  102  A    between atoms: _237  and  _239
REMARK  103  A    between atoms: _239  and  _240
REMARK  104  A    between atoms: _239  and  _242
REMARK  105  A    between atoms: _242  and  _243
REMARK  106  A    between atoms: _245  and  _247
REMARK  107  A    between atoms: _247  and  _248
REMARK  108  A    between atoms: _247  and  _250
REMARK  109  A    between atoms: _250  and  _251
REMARK  110  A    between atoms: _254  and  _256
REMARK  111  A    between atoms: _256  and  _257
REMARK  112  A    between atoms: _256  and  _259
REMARK  113  A    between atoms: _259  and  _260
REMARK  114  A    between atoms: _260  and  _261
REMARK  115  A    between atoms: _266  and  _268
REMARK  116  A    between atoms: _268  and  _269
REMARK  117  A    between atoms: _268  and  _271
REMARK  118  A    between atoms: _271  and  _272
REMARK  119  A    between atoms: _272  and  _273
REMARK  120  A    between atoms: _278  and  _280
REMARK  121  A    between atoms: _280  and  _281
REMARK  122  A    between atoms: _283  and  _285
REMARK  123  A    between atoms: _285  and  _286
REMARK  124  A    between atoms: _285  and  _288
REMARK  125  A    between atoms: _288  and  _289
REMARK  126  A    between atoms: _291  and  _293
REMARK  127  A    between atoms: _293  and  _294
REMARK  128  A    between atoms: _293  and  _296
REMARK  129  A    between atoms: _296  and  _297
REMARK  130  A    between atoms: _297  and  _298
REMARK  131  A    between atoms: _298  and  _299
REMARK  132  A    between atoms: _308  and  _310
REMARK  133  A    between atoms: _310  and  _311
REMARK  134  A    between atoms: _314  and  _316
REMARK  135  A    between atoms: _316  and  _317
REMARK  136  A    between atoms: _316  and  _319
REMARK  137  A    between atoms: _322  and  _324
REMARK  138  A    between atoms: _324  and  _325
REMARK  139  A    between atoms: _327  and  _329
REMARK  140  A    between atoms: _329  and  _330
REMARK  141  A    between atoms: _332  and  _334
REMARK  142  A    between atoms: _334  and  _335
REMARK  143  A    between atoms: _334  and  _337
REMARK  144  A    between atoms: _337  and  _338
REMARK  145  A    between atoms: _341  and  _343
REMARK  146  A    between atoms: _343  and  _344
REMARK  147  A    between atoms: _347  and  _349
REMARK  148  A    between atoms: _349  and  _350
REMARK  149  A    between atoms: _349  and  _352
REMARK  150  A    between atoms: _355  and  _357
REMARK  151  A    between atoms: _357  and  _358
REMARK  152  A    between atoms: _360  and  _362
REMARK  153  A    between atoms: _362  and  _363
REMARK  154  A    between atoms: _362  and  _365
REMARK  155  A    between atoms: _365  and  _366
REMARK  156  A    between atoms: _366  and  _367
REMARK  157  A    between atoms: _370  and  _372
REMARK  158  A    between atoms: _372  and  _373
REMARK  159  A    between atoms: _372  and  _375
REMARK  160  A    between atoms: _375  and  _376
REMARK  161  A    between atoms: _376  and  _377
REMARK  162  A    between atoms: _379  and  _381
REMARK  163  A    between atoms: _381  and  _382
REMARK  164  A    between atoms: _381  and  _384
REMARK  165  A    between atoms: _384  and  _385
REMARK  166  A    between atoms: _390  and  _391
REMARK  167  A    between atoms: _393  and  _395
REMARK  168  A    between atoms: _395  and  _396
REMARK  169  A    between atoms: _395  and  _398
REMARK  170  A    between atoms: _398  and  _399
REMARK  171  A    between atoms: _402  and  _404
REMARK  172  A    between atoms: _404  and  _405
REMARK  173  A    between atoms: _404  and  _407
REMARK  174  A    between atoms: _407  and  _408
REMARK  175  A    between atoms: _408  and  _409
REMARK  176  A    between atoms: _411  and  _413
REMARK  177  A    between atoms: _413  and  _414
REMARK  178  A    between atoms: _416  and  _418
REMARK  179  A    between atoms: _418  and  _419
REMARK  180  A    between atoms: _418  and  _421
REMARK  181  A    between atoms: _424  and  _426
REMARK  182  A    between atoms: _426  and  _427
REMARK  183  A    between atoms: _429  and  _431
REMARK  184  A    between atoms: _431  and  _432
REMARK  185  A    between atoms: _431  and  _434
REMARK  186  A    between atoms: _434  and  _435
REMARK  187  A    between atoms: _441  and  _443
REMARK  188  A    between atoms: _443  and  _444
REMARK  189  A    between atoms: _443  and  _446
REMARK  190  A    between atoms: _446  and  _447
REMARK  191  A    between atoms: _450  and  _452
REMARK  192  A    between atoms: _452  and  _453
REMARK  193  A    between atoms: _452  and  _455
REMARK  194  A    between atoms: _457  and  _459
REMARK  195  A    between atoms: _459  and  _460
REMARK  196  A    between atoms: _459  and  _462
REMARK  197  A    between atoms: _465  and  _467
REMARK  198  A    between atoms: _467  and  _468
REMARK  199  A    between atoms: _467  and  _470
REMARK  200  A    between atoms: _470  and  _471
REMARK  201  A    between atoms: _474  and  _476
REMARK  202  A    between atoms: _476  and  _477
REMARK  203  A    between atoms: _476  and  _479
REMARK  204  A    between atoms: _479  and  _480
REMARK  205  A    between atoms: _480  and  _481
REMARK  206  A    between atoms: _481  and  _482
REMARK                            x       y       z     vdW  Elec       q    Type
REMARK                         _______ _______ _______ _____ _____    ______ ____
ROOT
ATOM      1  CA  THR A   4       5.101  15.114  23.346  0.00  0.00    +0.176 C 
ENDROOT
BRANCH   1   3
ATOM      2  C   ASN A   3       5.466  14.279  21.111  0.00  0.00    +0.241 C 
ATOM      3  N   THR A   4       5.962  14.557  22.310  0.00  0.00    -0.295 N 
ATOM      4  H   THR A   4       6.966  14.377  22.511  0.00  0.00    +0.150 HD
ATOM      5  O   ASN A   3       4.278  14.426  20.858  0.00  0.00    -0.273 OA
BRANCH   2   6
ATOM      6  CA  ASN A   3       6.385  13.785  20.020  0.00  0.00    +0.158 C 
BRANCH   6   9
ATOM      7  C   GLY A   2       6.793  11.543  19.203  0.00  0.00    +0.243 C 
ATOM      8  O   GLY A   2       7.897  11.522  19.737  0.00  0.00    -0.273 OA
ATOM      9  N   ASN A   3       5.953  12.547  19.390  0.00  0.00    -0.297 N 
ATOM     10  H   ASN A   3       4.965  12.450  19.081  0.00  0.00    +0.150 HD
BRANCH   7  11
ATOM     11  CA  GLY A   2       6.356  10.393  18.319  0.00  0.00    +0.176 C 
BRANCH  11  13
ATOM     12  C   LEU A   1       7.980   9.176  16.917  0.00  0.00    +0.238 C 
ATOM     13  N   GLY A   2       7.456   9.475  18.099  0.00  0.00    -0.296 N 
ATOM     14  H   GLY A   2       7.868   9.013  18.935  0.00  0.00    +0.150 HD
ATOM     15  O   LEU A   1       7.603   9.603  15.837  0.00  0.00    -0.274 OA
BRANCH  12  16
ATOM     16  CA  LEU A   1       9.218   8.276  17.004  0.00  0.00    +0.145 C 
BRANCH  16  17
ATOM     17  N   LEU A   1       9.207   7.235  16.003  0.00  0.00    -0.238 NA
ATOM     18  H   LEU A   1       9.344   7.482  15.002  0.00  0.00    +0.142 HD
ENDBRANCH  16  17
BRANCH  16  19
ATOM     19  CB  LEU A   1      10.451   9.167  16.888  0.00  0.00    +0.026 C 
BRANCH  19  20
ATOM     20  CG  LEU A   1      10.649  10.290  17.898  0.00  0.00    +0.002 C 
ATOM     21  CD2 LEU A   1      12.128  10.438  18.229  0.00  0.00    +0.000 C 
ATOM     22  CD1 LEU A   1      10.110  11.620  17.385  0.00  0.00    +0.000 C 
ENDBRANCH  19  20
ENDBRANCH  16  19
ENDBRANCH  12  16
ENDBRANCH  11  13
ENDBRANCH   7  11
ENDBRANCH   6   9
BRANCH   6  23
ATOM     23  CB  ASN A   3       6.432  14.832  18.904  0.00  0.00    +0.114 C 
BRANCH  23  24
ATOM     24  CG  ASN A   3       7.815  15.046  18.317  0.00  0.00    +0.222 C 
ATOM     25  OD1 ASN A   3       8.653  15.720  18.918  0.00  0.00    -0.275 OA
ATOM     26  ND2 ASN A   3       8.081  14.481  17.137  0.00  0.00    -0.329 N 
ATOM     27 HD21 ASN A   3       9.017  14.604  16.701  0.00  0.00    +0.145 HD
ATOM     28 HD22 ASN A   3       7.352  13.918  16.654  0.00  0.00    +0.145 HD
ENDBRANCH  23  24
ENDBRANCH   6  23
ENDBRANCH   2   6
ENDBRANCH   1   3
BRANCH   1  29
ATOM     29  C   THR A   4       4.550  16.478  22.961  0.00  0.00    +0.243 C 
ATOM     30  O   THR A   4       3.356  16.758  23.099  0.00  0.00    -0.273 OA
ATOM     31  N   TYR A   5       5.391  17.380  22.448  0.00  0.00    -0.297 N 
ATOM     32  H   TYR A   5       6.361  17.086  22.214  0.00  0.00    +0.150 HD
BRANCH  31  33
ATOM     33  CA  TYR A   5       4.997  18.764  22.204  0.00  0.00    +0.153 C 
BRANCH  33  34
ATOM     34  C   TYR A   5       3.878  18.859  21.174  0.00  0.00    +0.241 C 
ATOM     35  O   TYR A   5       2.813  19.466  21.344  0.00  0.00    -0.273 OA
ATOM     36  N   HIS A   6       4.115  18.239  20.016  0.00  0.00    -0.298 N 
ATOM     37  H   HIS A   6       4.977  17.673  19.884  0.00  0.00    +0.150 HD
BRANCH  36  38
ATOM     38  CA  HIS A   6       3.135  18.372  18.933  0.00  0.00    +0.143 C 
BRANCH  38  39
ATOM     39  C   HIS A   6       1.801  17.719  19.259  0.00  0.00    +0.227 C 
ATOM     40  O   HIS A   6       0.709  18.236  19.001  0.00  0.00    -0.286 OA
ENDBRANCH  38  39
BRANCH  38  41
ATOM     41  CB  HIS A   6       3.748  17.813  17.653  0.00  0.00    +0.075 C 
BRANCH  41  42
ATOM     42  CG  HIS A   6       5.128  18.305  17.345  0.00  0.00    +0.082 A 
ATOM     43  CD2 HIS A   6       6.343  18.139  17.915  0.00  0.00    +0.115 A 
ATOM     44  NE2 HIS A   6       7.272  18.833  17.179  0.00  0.00    -0.221 NA
ATOM     45  CE1 HIS A   6       6.650  19.407  16.165  0.00  0.00    +0.199 A 
ATOM     46  ND1 HIS A   6       5.367  19.106  16.244  0.00  0.00    -0.227 NA
ENDBRANCH  41  42
ENDBRANCH  38  41
ENDBRANCH  36  38
ENDBRANCH  33  34
BRANCH  33  47
ATOM     47  CB  TYR A   5       6.222  19.592  21.759  0.00  0.00    +0.055 C 
BRANCH  47  48
ATOM     48  CG  TYR A   5       5.827  20.947  21.216  0.00  0.00    -0.020 A 
ATOM     49  CD2 TYR A   5       5.533  21.970  22.110  0.00  0.00    -0.001 A 
ATOM     50  CE2 TYR A   5       5.168  23.218  21.643  0.00  0.00    +0.036 A 
ATOM     51  CZ  TYR A   5       5.086  23.463  20.291  0.00  0.00    +0.134 A 
ATOM     52  CE1 TYR A   5       5.371  22.465  19.384  0.00  0.00    +0.036 A 
ATOM     53  CD1 TYR A   5       5.743  21.220  19.856  0.00  0.00    -0.001 A 
BRANCH  51  54
ATOM     54  OH  TYR A   5       4.720  24.711  19.845  0.00  0.00    -0.506 OA
ATOM     55  HH  TYR A   5       4.553  25.302  20.622  0.00  0.00    +0.292 HD
ENDBRANCH  51  54
ENDBRANCH  47  48
ENDBRANCH  33  47
ENDBRANCH  31  33
ENDBRANCH   1  29
BRANCH   1  56
ATOM     56  CB  THR A   4       5.925  15.192  24.644  0.00  0.00    +0.137 C 
ATOM     57  CG2 THR A   4       5.167  15.936  25.725  0.00  0.00    +0.034 C 
BRANCH  56  58
ATOM     58  OG1 THR A   4       6.137  13.859  25.120  0.00  0.00    -0.382 OA
ATOM     59  HG1 THR A   4       6.628  13.340  24.435  0.00  0.00    +0.210 HD
ENDBRANCH  56  58
ENDBRANCH   1  56
TORSDOF 23
REMARK  Name = ../refined-set-2016/3gc4/3gc4_pocket.pdb
REMARK  206 active torsions:
REMARK  status: ('A' for Active; 'I' for Inactive)
REMARK    1  A    between atoms: _1  and  _3
REMARK    2  A    between atoms: _3  and  _4
REMARK    3  A    between atoms: _3  and  _6
REMARK    4  A    between atoms: _6  and  _7
REMARK    5  A    between atoms: _7  and  _8
REMARK    6  A    between atoms: _10  and  _12
REMARK    7  A    between atoms: _12  and  _13
REMARK    8  A    between atoms: _12  and  _15
REMARK    9  A    between atoms: _18  and  _20
REMARK   10  A    between atoms: _20  and  _21
REMARK   11  A    between atoms: _23  and  _25
REMARK   12  A    between atoms: _25  and  _26
REMARK   13  A    between atoms: _25  and  _28
REMARK   14  A    between atoms: _28  and  _29
REMARK   15  A    between atoms: _32  and  _34
REMARK   16  A    between atoms: _34  and  _35
REMARK   17  A    between atoms: _34  and  _37
REMARK   18  A    between atoms: _37  and  _38
REMARK   19  A    between atoms: _38  and  _39
REMARK   20  A    between atoms: _39  and  _40
REMARK   21  A    between atoms: _40  and  _41
REMARK   22  A    between atoms: _45  and  _47
REMARK   23  A    between atoms: _47  and  _48
REMARK   24  A    between atoms: _47  and  _50
REMARK   25  A    between atoms: _50  and  _51
REMARK   26  A    between atoms: _54  and  _56
REMARK   27  A    between atoms: _56  and  _57
REMARK   28  A    between atoms: _59  and  _61
REMARK   29  A    between atoms: _61  and  _62
REMARK   30  A    between atoms: _61  and  _64
REMARK   31  A    between atoms: _64  and  _65
REMARK   32  A    between atoms: _70  and  _72
REMARK   33  A    between atoms: _72  and  _73
REMARK   34  A    between atoms: _72  and  _75
REMARK   35  A    between atoms: _75  and  _76
REMARK   36  A    between atoms: _79  and  _81
REMARK   37  A    between atoms: _81  and  _82
REMARK   38  A    between atoms: _81  and  _84
REMARK   39  A    between atoms: _84  and  _85
REMARK   40  A    between atoms: _90  and  _91
REMARK   41  A    between atoms: _93  and  _95
REMARK   42  A    between atoms: _95  and  _96
REMARK   43  A    between atoms: _95  and  _98
REMARK   44  A    between atoms: _98  and  _99
REMARK   45  A    between atoms: _104  and  _106
REMARK   46  A    between atoms: _106  and  _107
REMARK   47  A    between atoms: _106  and  _109
REMARK   48  A    between atoms: _109  and  _110
REMARK   49  A    between atoms: _113  and  _115
REMARK   50  A    between atoms: _115  and  _116
REMARK   51  A    between atoms: _115  and  _118
REMARK   52  A    between atoms: _118  and  _119
REMARK   53  A    between atoms: _122  and  _124
REMARK   54  A    between atoms: _124  and  _125
REMARK   55  A    between atoms: _124  and  _127
REMARK   56  A    between atoms: _127  and  _128
REMARK   57  A    between atoms: _131  and  _133
REMARK   58  A    between atoms: _133  and  _134
REMARK   59  A    between atoms: _133  and  _136
REMARK   60  A    between atoms: _136  and  _137
REMARK   61  A    between atoms: _139  and  _141
REMARK   62  A    between atoms: _141  and  _142
REMARK   63  A    between atoms: _144  and  _146
REMARK   64  A    between atoms: _146  and  _147
REMARK   65  A    between atoms: _149  and  _151
REMARK   66  A    between atoms: _151  and  _152
REMARK   67  A    between atoms: _151  and  _154
REMARK   68  A    between atoms: _154  and  _155
REMARK   69  A    between atoms: _160  and  _161
REMARK   70  A    between atoms: _163  and  _165
REMARK   71  A    between atoms: _165  and  _166
REMARK   72  A    between atoms: _165  and  _168
REMARK   73  A    between atoms: _168  and  _169
REMARK   74  A    between atoms: _169  and  _170
REMARK   75  A    between atoms: _175  and  _177
REMARK   76  A    between atoms: _177  and  _178
REMARK   77  A    between atoms: _177  and  _180
REMARK   78  A    between atoms: _180  and  _181
REMARK   79  A    between atoms: _181  and  _182
REMARK   80  A    between atoms: _184  and  _186
REMARK   81  A    between atoms: _186  and  _187
REMARK   82  A    between atoms: _190  and  _192
REMARK   83  A    between atoms: _192  and  _193
REMARK   84  A    between atoms: _192  and  _195
REMARK   85  A    between atoms: _195  and  _196
REMARK   86  A    between atoms: _202  and  _204
REMARK   87  A    between atoms: _204  and  _205
REMARK   88  A    between atoms: _204  and  _207
REMARK   89  A    between atoms: _207  and  _208
REMARK   90  A    between atoms: _211  and  _213
REMARK   91  A    between atoms: _213  and  _214
REMARK   92  A    between atoms: _213  and  _216
REMARK   93  A    between atoms: _216  and  _217
REMARK   94  A    between atoms: _217  and  _218
REMARK   95  A    between atoms: _221  and  _223
REMARK   96  A    between atoms: _223  and  _224
REMARK   97  A    between atoms: _223  and  _226
REMARK   98  A    between atoms: _228  and  _230
REMARK   99  A    between atoms: _230  and  _231
REMARK  100  A    between atoms: _230  and  _233
REMARK  101  A    between atoms: _233  and  _234
REMARK  102  A    between atoms: _237  and  _239
REMARK  103  A    between atoms: _239  and  _240
REMARK  104  A    between atoms: _239  and  _242
REMARK  105  A    between atoms: _242  and  _243
REMARK  106  A    between atoms: _245  and  _247
REMARK  107  A    between atoms: _247  and  _248
REMARK  108  A    between atoms: _247  and  _250
REMARK  109  A    between atoms: _250  and  _251
REMARK  110  A    between atoms: _254  and  _256
REMARK  111  A    between atoms: _256  and  _257
REMARK  112  A    between atoms: _256  and  _259
REMARK  113  A    between atoms: _259  and  _260
REMARK  114  A    between atoms: _260  and  _261
REMARK  115  A    between atoms: _266  and  _268
REMARK  116  A    between atoms: _268  and  _269
REMARK  117  A    between atoms: _268  and  _271
REMARK  118  A    between atoms: _271  and  _272
REMARK  119  A    between atoms: _272  and  _273
REMARK  120  A    between atoms: _278  and  _280
REMARK  121  A    between atoms: _280  and  _281
REMARK  122  A    between atoms: _283  and  _285
REMARK  123  A    between atoms: _285  and  _286
REMARK  124  A    between atoms: _285  and  _288
REMARK  125  A    between atoms: _288  and  _289
REMARK  126  A    between atoms: _291  and  _293
REMARK  127  A    between atoms: _293  and  _294
REMARK  128  A    between atoms: _293  and  _296
REMARK  129  A    between atoms: _296  and  _297
REMARK  130  A    between atoms: _297  and  _298
REMARK  131  A    between atoms: _298  and  _299
REMARK  132  A    between atoms: _308  and  _310
REMARK  133  A    between atoms: _310  and  _311
REMARK  134  A    between atoms: _314  and  _316
REMARK  135  A    between atoms: _316  and  _317
REMARK  136  A    between atoms: _316  and  _319
REMARK  137  A    between atoms: _322  and  _324
REMARK  138  A    between atoms: _324  and  _325
REMARK  139  A    between atoms: _327  and  _329
REMARK  140  A    between atoms: _329  and  _330
REMARK  141  A    between atoms: _332  and  _334
REMARK  142  A    between atoms: _334  and  _335
REMARK  143  A    between atoms: _334  and  _337
REMARK  144  A    between atoms: _337  and  _338
REMARK  145  A    between atoms: _341  and  _343
REMARK  146  A    between atoms: _343  and  _344
REMARK  147  A    between atoms: _347  and  _349
REMARK  148  A    between atoms: _349  and  _350
REMARK  149  A    between atoms: _349  and  _352
REMARK  150  A    between atoms: _355  and  _357
REMARK  151  A    between atoms: _357  and  _358
REMARK  152  A    between atoms: _360  and  _362
REMARK  153  A    between atoms: _362  and  _363
REMARK  154  A    between atoms: _362  and  _365
REMARK  155  A    between atoms: _365  and  _366
REMARK  156  A    between atoms: _366  and  _367
REMARK  157  A    between atoms: _370  and  _372
REMARK  158  A    between atoms: _372  and  _373
REMARK  159  A    between atoms: _372  and  _375
REMARK  160  A    between atoms: _375  and  _376
REMARK  161  A    between atoms: _376  and  _377
REMARK  162  A    between atoms: _379  and  _381
REMARK  163  A    between atoms: _381  and  _382
REMARK  164  A    between atoms: _381  and  _384
REMARK  165  A    between atoms: _384  and  _385
REMARK  166  A    between atoms: _390  and  _391
REMARK  167  A    between atoms: _393  and  _395
REMARK  168  A    between atoms: _395  and  _396
REMARK  169  A    between atoms: _395  and  _398
REMARK  170  A    between atoms: _398  and  _399
REMARK  171  A    between atoms: _402  and  _404
REMARK  172  A    between atoms: _404  and  _405
REMARK  173  A    between atoms: _404  and  _407
REMARK  174  A    between atoms: _407  and  _408
REMARK  175  A    between atoms: _408  and  _409
REMARK  176  A    between atoms: _411  and  _413
REMARK  177  A    between atoms: _413  and  _414
REMARK  178  A    between atoms: _416  and  _418
REMARK  179  A    between atoms: _418  and  _419
REMARK  180  A    between atoms: _418  and  _421
REMARK  181  A    between atoms: _424  and  _426
REMARK  182  A    between atoms: _426  and  _427
REMARK  183  A    between atoms: _429  and  _431
REMARK  184  A    between atoms: _431  and  _432
REMARK  185  A    between atoms: _431  and  _434
REMARK  186  A    between atoms: _434  and  _435
REMARK  187  A    between atoms: _441  and  _443
REMARK  188  A    between atoms: _443  and  _444
REMARK  189  A    between atoms: _443  and  _446
REMARK  190  A    between atoms: _446  and  _447
REMARK  191  A    between atoms: _450  and  _452
REMARK  192  A    between atoms: _452  and  _453
REMARK  193  A    between atoms: _452  and  _455
REMARK  194  A    between atoms: _457  and  _459
REMARK  195  A    between atoms: _459  and  _460
REMARK  196  A    between atoms: _459  and  _462
REMARK  197  A    between atoms: _465  and  _467
REMARK  198  A    between atoms: _467  and  _468
REMARK  199  A    between atoms: _467  and  _470
REMARK  200  A    between atoms: _470  and  _471
REMARK  201  A    between atoms: _474  and  _476
REMARK  202  A    between atoms: _476  and  _477
REMARK  203  A    between atoms: _476  and  _479
REMARK  204  A    between atoms: _479  and  _480
REMARK  205  A    between atoms: _480  and  _481
REMARK  206  A    between atoms: _481  and  _482
REMARK                            x       y       z     vdW  Elec       q    Type
REMARK                         _______ _______ _______ _____ _____    ______ ____
ROOT
ATOM      1  CA  SER A   4       9.748  14.768  25.862  0.00  0.00    +0.178 C 
ENDROOT
BRANCH   1   3
ATOM      2  C   ASP A   3       9.777  13.549  23.767  0.00  0.00    +0.241 C 
ATOM      3  N   SER A   4      10.428  14.263  24.671  0.00  0.00    -0.295 N 
ATOM      4  H   SER A   4      11.438  14.468  24.532  0.00  0.00    +0.150 HD
ATOM      5  O   ASP A   3       8.550  13.474  23.768  0.00  0.00    -0.273 OA
BRANCH   2   6
ATOM      6  CA  ASP A   3      10.559  12.780  22.712  0.00  0.00    +0.160 C 
BRANCH   6   9
ATOM      7  C   THR A   2       9.376  10.699  22.881  0.00  0.00    +0.243 C 
ATOM      8  O   THR A   2       9.892  10.472  23.983  0.00  0.00    -0.273 OA
ATOM      9  N   ASP A   3       9.664  11.768  22.128  0.00  0.00    -0.296 N 
ATOM     10  H   ASP A   3       9.272  11.879  21.171  0.00  0.00    +0.150 HD
BRANCH   7  11
ATOM     11  CA  THR A   2       8.343   9.722  22.327  0.00  0.00    +0.176 C 
BRANCH  11  13
ATOM     12  C   LEU A   1       9.011   7.658  21.273  0.00  0.00    +0.238 C 
ATOM     13  N   THR A   2       8.815   8.358  22.400  0.00  0.00    -0.295 N 
ATOM     14  H   THR A   2       9.002   7.920  23.325  0.00  0.00    +0.150 HD
ATOM     15  O   LEU A   1       8.697   8.123  20.176  0.00  0.00    -0.274 OA
BRANCH  12  16
ATOM     16  CA  LEU A   1       9.620   6.268  21.370  0.00  0.00    +0.145 C 
BRANCH  16  17
ATOM     17  N   LEU A   1       8.840   5.410  20.485  0.00  0.00    -0.238 NA
ATOM     18  H   LEU A   1       9.051   5.414  19.467  0.00  0.00    +0.142 HD
ENDBRANCH  16  17
BRANCH  16  19
ATOM     19  CB  LEU A   1      11.112   6.259  21.010  0.00  0.00    +0.026 C 
BRANCH  19  20
ATOM     20  CG  LEU A   1      12.060   7.067  21.889  0.00  0.00    +0.002 C 
ATOM     21  CD2 LEU A   1      13.444   6.423  21.898  0.00  0.00    +0.000 C 
ATOM     22  CD1 LEU A   1      12.180   8.516  21.436  0.00  0.00    +0.000 C 
ENDBRANCH  19  20
ENDBRANCH  16  19
ENDBRANCH  12  16
ENDBRANCH  11  13
BRANCH  11  23
ATOM     23  CB  THR A   2       7.054   9.956  23.132  0.00  0.00    +0.137 C 
ATOM     24  CG2 THR A   2       5.868   9.422  22.355  0.00  0.00    +0.034 C 
BRANCH  23  25
ATOM     25  OG1 THR A   2       7.081   9.234  24.376  0.00  0.00    -0.382 OA
ATOM     26  HG1 THR A   2       7.852   9.539  24.917  0.00  0.00    +0.210 HD
ENDBRANCH  23  25
ENDBRANCH  11  23
ENDBRANCH   7  11
ENDBRANCH   6   9
BRANCH   6  27
ATOM     27  CB  ASP A   3      11.150  13.697  21.659  0.00  0.00    +0.143 C 
BRANCH  27  28
ATOM     28  CG  ASP A   3      12.365  14.478  22.112  0.00  0.00    +0.367 C 
ATOM     29  OD2 ASP A   3      12.771  14.378  23.286  0.00  0.00    -0.246 OA
ATOM     30  OD1 ASP A   3      12.929  15.229  21.296  0.00  0.00    -0.246 OA
ENDBRANCH  27  28
ENDBRANCH   6  27
ENDBRANCH   2   6
ENDBRANCH   1   3
BRANCH   1  31
ATOM     31  C   SER A   4       9.212  16.198  25.739  0.00  0.00    +0.243 C 
ATOM     32  O   SER A   4       8.508  16.656  26.644  0.00  0.00    -0.273 OA
ATOM     33  N   GLY A   5       9.556  16.853  24.642  0.00  0.00    -0.295 N 
ATOM     34  H   GLY A   5      10.104  16.330  23.930  0.00  0.00    +0.150 HD
BRANCH  33  35
ATOM     35  CA  GLY A   5       9.237  18.233  24.345  0.00  0.00    +0.176 C 
BRANCH  35  36
ATOM     36  C   GLY A   5      10.366  19.182  24.718  0.00  0.00    +0.243 C 
ATOM     37  N   GLY A   6      11.497  18.647  25.152  0.00  0.00    -0.295 N 
ATOM     38  H   GLY A   6      11.537  17.608  25.191  0.00  0.00    +0.150 HD
ATOM     39  O   GLY A   5      10.228  20.401  24.599  0.00  0.00    -0.273 OA
BRANCH  37  40
ATOM     40  CA  GLY A   6      12.685  19.359  25.578  0.00  0.00    +0.176 C 
BRANCH  40  41
ATOM     41  C   GLY A   6      13.399  20.049  24.424  0.00  0.00    +0.243 C 
ATOM     42  O   GLY A   6      14.198  20.967  24.605  0.00  0.00    -0.273 OA
ATOM     43  N   TYR A   7      13.109  19.593  23.209  0.00  0.00    -0.298 N 
ATOM     44  H   TYR A   7      12.476  18.772  23.128  0.00  0.00    +0.150 HD
BRANCH  43  45
ATOM     45  CA  TYR A   7      13.631  20.184  21.990  0.00  0.00    +0.141 C 
BRANCH  45  46
ATOM     46  C   TYR A   7      12.512  20.988  21.297  0.00  0.00    +0.227 C 
ATOM     47  O   TYR A   7      12.751  22.189  21.097  0.00  0.00    -0.286 OA
ENDBRANCH  45  46
BRANCH  45  48
ATOM     48  CB  TYR A   7      14.173  19.113  21.058  0.00  0.00    +0.054 C 
BRANCH  48  49
ATOM     49  CG  TYR A   7      14.788  19.599  19.770  0.00  0.00    -0.020 A 
ATOM     50  CD2 TYR A   7      16.145  19.895  19.675  0.00  0.00    -0.001 A 
ATOM     51  CE2 TYR A   7      16.686  20.342  18.476  0.00  0.00    +0.036 A 
ATOM     52  CZ  TYR A   7      15.885  20.488  17.366  0.00  0.00    +0.134 A 
ATOM     53  CE1 TYR A   7      14.538  20.199  17.430  0.00  0.00    +0.036 A 
ATOM     54  CD1 TYR A   7      14.007  19.755  18.628  0.00  0.00    -0.001 A 
BRANCH  52  55
ATOM     55  OH  TYR A   7      16.416  20.925  16.181  0.00  0.00    -0.506 OA
ATOM     56  HH  TYR A   7      15.701  20.970  15.497  0.00  0.00    +0.292 HD
ENDBRANCH  52  55
ENDBRANCH  48  49
ENDBRANCH  45  48
ENDBRANCH  43  45
ENDBRANCH  40  41
ENDBRANCH  37  40
ENDBRANCH  35  36
ENDBRANCH  33  35
ENDBRANCH   1  31
BRANCH   1  57
ATOM     57  CB  SER A   4      10.714  14.719  27.034  0.00  0.00    +0.166 C 
BRANCH  57  58
ATOM     58  OG  SER A   4      11.923  15.361  26.642  0.00  0.00    -0.380 OA
ATOM     59  H   SER A   4      12.566  15.339  27.394  0.00  0.00    +0.211 HD
ENDBRANCH  57  58
ENDBRANCH   1  57
TORSDOF 25
REMARK  Name = ../refined-set-2016/3gc4/3gc4_pocket.pdb
REMARK  206 active torsions:
REMARK  status: ('A' for Active; 'I' for Inactive)
REMARK    1  A    between atoms: _1  and  _3
REMARK    2  A    between atoms: _3  and  _4
REMARK    3  A    between atoms: _3  and  _6
REMARK    4  A    between atoms: _6  and  _7
REMARK    5  A    between atoms: _7  and  _8
REMARK    6  A    between atoms: _10  and  _12
REMARK    7  A    between atoms: _12  and  _13
REMARK    8  A    between atoms: _12  and  _15
REMARK    9  A    between atoms: _18  and  _20
REMARK   10  A    between atoms: _20  and  _21
REMARK   11  A    between atoms: _23  and  _25
REMARK   12  A    between atoms: _25  and  _26
REMARK   13  A    between atoms: _25  and  _28
REMARK   14  A    between atoms: _28  and  _29
REMARK   15  A    between atoms: _32  and  _34
REMARK   16  A    between atoms: _34  and  _35
REMARK   17  A    between atoms: _34  and  _37
REMARK   18  A    between atoms: _37  and  _38
REMARK   19  A    between atoms: _38  and  _39
REMARK   20  A    between atoms: _39  and  _40
REMARK   21  A    between atoms: _40  and  _41
REMARK   22  A    between atoms: _45  and  _47
REMARK   23  A    between atoms: _47  and  _48
REMARK   24  A    between atoms: _47  and  _50
REMARK   25  A    between atoms: _50  and  _51
REMARK   26  A    between atoms: _54  and  _56
REMARK   27  A    between atoms: _56  and  _57
REMARK   28  A    between atoms: _59  and  _61
REMARK   29  A    between atoms: _61  and  _62
REMARK   30  A    between atoms: _61  and  _64
REMARK   31  A    between atoms: _64  and  _65
REMARK   32  A    between atoms: _70  and  _72
REMARK   33  A    between atoms: _72  and  _73
REMARK   34  A    between atoms: _72  and  _75
REMARK   35  A    between atoms: _75  and  _76
REMARK   36  A    between atoms: _79  and  _81
REMARK   37  A    between atoms: _81  and  _82
REMARK   38  A    between atoms: _81  and  _84
REMARK   39  A    between atoms: _84  and  _85
REMARK   40  A    between atoms: _90  and  _91
REMARK   41  A    between atoms: _93  and  _95
REMARK   42  A    between atoms: _95  and  _96
REMARK   43  A    between atoms: _95  and  _98
REMARK   44  A    between atoms: _98  and  _99
REMARK   45  A    between atoms: _104  and  _106
REMARK   46  A    between atoms: _106  and  _107
REMARK   47  A    between atoms: _106  and  _109
REMARK   48  A    between atoms: _109  and  _110
REMARK   49  A    between atoms: _113  and  _115
REMARK   50  A    between atoms: _115  and  _116
REMARK   51  A    between atoms: _115  and  _118
REMARK   52  A    between atoms: _118  and  _119
REMARK   53  A    between atoms: _122  and  _124
REMARK   54  A    between atoms: _124  and  _125
REMARK   55  A    between atoms: _124  and  _127
REMARK   56  A    between atoms: _127  and  _128
REMARK   57  A    between atoms: _131  and  _133
REMARK   58  A    between atoms: _133  and  _134
REMARK   59  A    between atoms: _133  and  _136
REMARK   60  A    between atoms: _136  and  _137
REMARK   61  A    between atoms: _139  and  _141
REMARK   62  A    between atoms: _141  and  _142
REMARK   63  A    between atoms: _144  and  _146
REMARK   64  A    between atoms: _146  and  _147
REMARK   65  A    between atoms: _149  and  _151
REMARK   66  A    between atoms: _151  and  _152
REMARK   67  A    between atoms: _151  and  _154
REMARK   68  A    between atoms: _154  and  _155
REMARK   69  A    between atoms: _160  and  _161
REMARK   70  A    between atoms: _163  and  _165
REMARK   71  A    between atoms: _165  and  _166
REMARK   72  A    between atoms: _165  and  _168
REMARK   73  A    between atoms: _168  and  _169
REMARK   74  A    between atoms: _169  and  _170
REMARK   75  A    between atoms: _175  and  _177
REMARK   76  A    between atoms: _177  and  _178
REMARK   77  A    between atoms: _177  and  _180
REMARK   78  A    between atoms: _180  and  _181
REMARK   79  A    between atoms: _181  and  _182
REMARK   80  A    between atoms: _184  and  _186
REMARK   81  A    between atoms: _186  and  _187
REMARK   82  A    between atoms: _190  and  _192
REMARK   83  A    between atoms: _192  and  _193
REMARK   84  A    between atoms: _192  and  _195
REMARK   85  A    between atoms: _195  and  _196
REMARK   86  A    between atoms: _202  and  _204
REMARK   87  A    between atoms: _204  and  _205
REMARK   88  A    between atoms: _204  and  _207
REMARK   89  A    between atoms: _207  and  _208
REMARK   90  A    between atoms: _211  and  _213
REMARK   91  A    between atoms: _213  and  _214
REMARK   92  A    between atoms: _213  and  _216
REMARK   93  A    between atoms: _216  and  _217
REMARK   94  A    between atoms: _217  and  _218
REMARK   95  A    between atoms: _221  and  _223
REMARK   96  A    between atoms: _223  and  _224
REMARK   97  A    between atoms: _223  and  _226
REMARK   98  A    between atoms: _228  and  _230
REMARK   99  A    between atoms: _230  and  _231
REMARK  100  A    between atoms: _230  and  _233
REMARK  101  A    between atoms: _233  and  _234
REMARK  102  A    between atoms: _237  and  _239
REMARK  103  A    between atoms: _239  and  _240
REMARK  104  A    between atoms: _239  and  _242
REMARK  105  A    between atoms: _242  and  _243
REMARK  106  A    between atoms: _245  and  _247
REMARK  107  A    between atoms: _247  and  _248
REMARK  108  A    between atoms: _247  and  _250
REMARK  109  A    between atoms: _250  and  _251
REMARK  110  A    between atoms: _254  and  _256
REMARK  111  A    between atoms: _256  and  _257
REMARK  112  A    between atoms: _256  and  _259
REMARK  113  A    between atoms: _259  and  _260
REMARK  114  A    between atoms: _260  and  _261
REMARK  115  A    between atoms: _266  and  _268
REMARK  116  A    between atoms: _268  and  _269
REMARK  117  A    between atoms: _268  and  _271
REMARK  118  A    between atoms: _271  and  _272
REMARK  119  A    between atoms: _272  and  _273
REMARK  120  A    between atoms: _278  and  _280
REMARK  121  A    between atoms: _280  and  _281
REMARK  122  A    between atoms: _283  and  _285
REMARK  123  A    between atoms: _285  and  _286
REMARK  124  A    between atoms: _285  and  _288
REMARK  125  A    between atoms: _288  and  _289
REMARK  126  A    between atoms: _291  and  _293
REMARK  127  A    between atoms: _293  and  _294
REMARK  128  A    between atoms: _293  and  _296
REMARK  129  A    between atoms: _296  and  _297
REMARK  130  A    between atoms: _297  and  _298
REMARK  131  A    between atoms: _298  and  _299
REMARK  132  A    between atoms: _308  and  _310
REMARK  133  A    between atoms: _310  and  _311
REMARK  134  A    between atoms: _314  and  _316
REMARK  135  A    between atoms: _316  and  _317
REMARK  136  A    between atoms: _316  and  _319
REMARK  137  A    between atoms: _322  and  _324
REMARK  138  A    between atoms: _324  and  _325
REMARK  139  A    between atoms: _327  and  _329
REMARK  140  A    between atoms: _329  and  _330
REMARK  141  A    between atoms: _332  and  _334
REMARK  142  A    between atoms: _334  and  _335
REMARK  143  A    between atoms: _334  and  _337
REMARK  144  A    between atoms: _337  and  _338
REMARK  145  A    between atoms: _341  and  _343
REMARK  146  A    between atoms: _343  and  _344
REMARK  147  A    between atoms: _347  and  _349
REMARK  148  A    between atoms: _349  and  _350
REMARK  149  A    between atoms: _349  and  _352
REMARK  150  A    between atoms: _355  and  _357
REMARK  151  A    between atoms: _357  and  _358
REMARK  152  A    between atoms: _360  and  _362
REMARK  153  A    between atoms: _362  and  _363
REMARK  154  A    between atoms: _362  and  _365
REMARK  155  A    between atoms: _365  and  _366
REMARK  156  A    between atoms: _366  and  _367
REMARK  157  A    between atoms: _370  and  _372
REMARK  158  A    between atoms: _372  and  _373
REMARK  159  A    between atoms: _372  and  _375
REMARK  160  A    between atoms: _375  and  _376
REMARK  161  A    between atoms: _376  and  _377
REMARK  162  A    between atoms: _379  and  _381
REMARK  163  A    between atoms: _381  and  _382
REMARK  164  A    between atoms: _381  and  _384
REMARK  165  A    between atoms: _384  and  _385
REMARK  166  A    between atoms: _390  and  _391
REMARK  167  A    between atoms: _393  and  _395
REMARK  168  A    between atoms: _395  and  _396
REMARK  169  A    between atoms: _395  and  _398
REMARK  170  A    between atoms: _398  and  _399
REMARK  171  A    between atoms: _402  and  _404
REMARK  172  A    between atoms: _404  and  _405
REMARK  173  A    between atoms: _404  and  _407
REMARK  174  A    between atoms: _407  and  _408
REMARK  175  A    between atoms: _408  and  _409
REMARK  176  A    between atoms: _411  and  _413
REMARK  177  A    between atoms: _413  and  _414
REMARK  178  A    between atoms: _416  and  _418
REMARK  179  A    between atoms: _418  and  _419
REMARK  180  A    between atoms: _418  and  _421
REMARK  181  A    between atoms: _424  and  _426
REMARK  182  A    between atoms: _426  and  _427
REMARK  183  A    between atoms: _429  and  _431
REMARK  184  A    between atoms: _431  and  _432
REMARK  185  A    between atoms: _431  and  _434
REMARK  186  A    between atoms: _434  and  _435
REMARK  187  A    between atoms: _441  and  _443
REMARK  188  A    between atoms: _443  and  _444
REMARK  189  A    between atoms: _443  and  _446
REMARK  190  A    between atoms: _446  and  _447
REMARK  191  A    between atoms: _450  and  _452
REMARK  192  A    between atoms: _452  and  _453
REMARK  193  A    between atoms: _452  and  _455
REMARK  194  A    between atoms: _457  and  _459
REMARK  195  A    between atoms: _459  and  _460
REMARK  196  A    between atoms: _459  and  _462
REMARK  197  A    between atoms: _465  and  _467
REMARK  198  A    between atoms: _467  and  _468
REMARK  199  A    between atoms: _467  and  _470
REMARK  200  A    between atoms: _470  and  _471
REMARK  201  A    between atoms: _474  and  _476
REMARK  202  A    between atoms: _476  and  _477
REMARK  203  A    between atoms: _476  and  _479
REMARK  204  A    between atoms: _479  and  _480
REMARK  205  A    between atoms: _480  and  _481
REMARK  206  A    between atoms: _481  and  _482
REMARK                            x       y       z     vdW  Elec       q    Type
REMARK                         _______ _______ _______ _____ _____    ______ ____
ROOT
ATOM      1  CB  GLN A   1       5.472  10.192  27.558  0.00  0.00    +0.035 C 
ENDROOT
BRANCH   1   2
ATOM      2  CA  GLN A   1       3.952  10.241  27.333  0.00  0.00    +0.134 C 
BRANCH   2   3
ATOM      3  N   GLN A   1       3.411  11.425  28.021  0.00  0.00    -0.239 NA
ATOM      4  H   GLN A   1       4.012  11.956  28.683  0.00  0.00    +0.142 HD
ENDBRANCH   2   3
BRANCH   2   5
ATOM      5  C   GLN A   1       3.203   9.002  27.775  0.00  0.00    +0.224 C 
ATOM      6  O   GLN A   1       2.917   8.076  27.008  0.00  0.00    -0.287 OA
ENDBRANCH   2   5
ENDBRANCH   1   2
BRANCH   1   7
ATOM      7  CG  GLN A   1       6.177  11.375  26.881  0.00  0.00    +0.087 C 
BRANCH   7   8
ATOM      8  CD  GLN A   1       7.671  11.298  27.072  0.00  0.00    +0.219 C 
ATOM      9  NE2 GLN A   1       8.249  12.143  27.899  0.00  0.00    -0.329 N 
ATOM     10 HE21 GLN A   1       7.681  12.866  28.385  0.00  0.00    +0.145 HD
ATOM     11 HE22 GLN A   1       9.274  12.088  28.066  0.00  0.00    +0.145 HD
ATOM     12  OE1 GLN A   1       8.367  10.477  26.530  0.00  0.00    -0.275 OA
ENDBRANCH   7   8
ENDBRANCH   1   7
TORSDOF 5
REMARK  Name = ../refined-set-2016/3gc4/3gc4_pocket.pdb
REMARK  206 active torsions:
REMARK  status: ('A' for Active; 'I' for Inactive)
REMARK    1  A    between atoms: _1  and  _3
REMARK    2  A    between atoms: _3  and  _4
REMARK    3  A    between atoms: _3  and  _6
REMARK    4  A    between atoms: _6  and  _7
REMARK    5  A    between atoms: _7  and  _8
REMARK    6  A    between atoms: _10  and  _12
REMARK    7  A    between atoms: _12  and  _13
REMARK    8  A    between atoms: _12  and  _15
REMARK    9  A    between atoms: _18  and  _20
REMARK   10  A    between atoms: _20  and  _21
REMARK   11  A    between atoms: _23  and  _25
REMARK   12  A    between atoms: _25  and  _26
REMARK   13  A    between atoms: _25  and  _28
REMARK   14  A    between atoms: _28  and  _29
REMARK   15  A    between atoms: _32  and  _34
REMARK   16  A    between atoms: _34  and  _35
REMARK   17  A    between atoms: _34  and  _37
REMARK   18  A    between atoms: _37  and  _38
REMARK   19  A    between atoms: _38  and  _39
REMARK   20  A    between atoms: _39  and  _40
REMARK   21  A    between atoms: _40  and  _41
REMARK   22  A    between atoms: _45  and  _47
REMARK   23  A    between atoms: _47  and  _48
REMARK   24  A    between atoms: _47  and  _50
REMARK   25  A    between atoms: _50  and  _51
REMARK   26  A    between atoms: _54  and  _56
REMARK   27  A    between atoms: _56  and  _57
REMARK   28  A    between atoms: _59  and  _61
REMARK   29  A    between atoms: _61  and  _62
REMARK   30  A    between atoms: _61  and  _64
REMARK   31  A    between atoms: _64  and  _65
REMARK   32  A    between atoms: _70  and  _72
REMARK   33  A    between atoms: _72  and  _73
REMARK   34  A    between atoms: _72  and  _75
REMARK   35  A    between atoms: _75  and  _76
REMARK   36  A    between atoms: _79  and  _81
REMARK   37  A    between atoms: _81  and  _82
REMARK   38  A    between atoms: _81  and  _84
REMARK   39  A    between atoms: _84  and  _85
REMARK   40  A    between atoms: _90  and  _91
REMARK   41  A    between atoms: _93  and  _95
REMARK   42  A    between atoms: _95  and  _96
REMARK   43  A    between atoms: _95  and  _98
REMARK   44  A    between atoms: _98  and  _99
REMARK   45  A    between atoms: _104  and  _106
REMARK   46  A    between atoms: _106  and  _107
REMARK   47  A    between atoms: _106  and  _109
REMARK   48  A    between atoms: _109  and  _110
REMARK   49  A    between atoms: _113  and  _115
REMARK   50  A    between atoms: _115  and  _116
REMARK   51  A    between atoms: _115  and  _118
REMARK   52  A    between atoms: _118  and  _119
REMARK   53  A    between atoms: _122  and  _124
REMARK   54  A    between atoms: _124  and  _125
REMARK   55  A    between atoms: _124  and  _127
REMARK   56  A    between atoms: _127  and  _128
REMARK   57  A    between atoms: _131  and  _133
REMARK   58  A    between atoms: _133  and  _134
REMARK   59  A    between atoms: _133  and  _136
REMARK   60  A    between atoms: _136  and  _137
REMARK   61  A    between atoms: _139  and  _141
REMARK   62  A    between atoms: _141  and  _142
REMARK   63  A    between atoms: _144  and  _146
REMARK   64  A    between atoms: _146  and  _147
REMARK   65  A    between atoms: _149  and  _151
REMARK   66  A    between atoms: _151  and  _152
REMARK   67  A    between atoms: _151  and  _154
REMARK   68  A    between atoms: _154  and  _155
REMARK   69  A    between atoms: _160  and  _161
REMARK   70  A    between atoms: _163  and  _165
REMARK   71  A    between atoms: _165  and  _166
REMARK   72  A    between atoms: _165  and  _168
REMARK   73  A    between atoms: _168  and  _169
REMARK   74  A    between atoms: _169  and  _170
REMARK   75  A    between atoms: _175  and  _177
REMARK   76  A    between atoms: _177  and  _178
REMARK   77  A    between atoms: _177  and  _180
REMARK   78  A    between atoms: _180  and  _181
REMARK   79  A    between atoms: _181  and  _182
REMARK   80  A    between atoms: _184  and  _186
REMARK   81  A    between atoms: _186  and  _187
REMARK   82  A    between atoms: _190  and  _192
REMARK   83  A    between atoms: _192  and  _193
REMARK   84  A    between atoms: _192  and  _195
REMARK   85  A    between atoms: _195  and  _196
REMARK   86  A    between atoms: _202  and  _204
REMARK   87  A    between atoms: _204  and  _205
REMARK   88  A    between atoms: _204  and  _207
REMARK   89  A    between atoms: _207  and  _208
REMARK   90  A    between atoms: _211  and  _213
REMARK   91  A    between atoms: _213  and  _214
REMARK   92  A    between atoms: _213  and  _216
REMARK   93  A    between atoms: _216  and  _217
REMARK   94  A    between atoms: _217  and  _218
REMARK   95  A    between atoms: _221  and  _223
REMARK   96  A    between atoms: _223  and  _224
REMARK   97  A    between atoms: _223  and  _226
REMARK   98  A    between atoms: _228  and  _230
REMARK   99  A    between atoms: _230  and  _231
REMARK  100  A    between atoms: _230  and  _233
REMARK  101  A    between atoms: _233  and  _234
REMARK  102  A    between atoms: _237  and  _239
REMARK  103  A    between atoms: _239  and  _240
REMARK  104  A    between atoms: _239  and  _242
REMARK  105  A    between atoms: _242  and  _243
REMARK  106  A    between atoms: _245  and  _247
REMARK  107  A    between atoms: _247  and  _248
REMARK  108  A    between atoms: _247  and  _250
REMARK  109  A    between atoms: _250  and  _251
REMARK  110  A    between atoms: _254  and  _256
REMARK  111  A    between atoms: _256  and  _257
REMARK  112  A    between atoms: _256  and  _259
REMARK  113  A    between atoms: _259  and  _260
REMARK  114  A    between atoms: _260  and  _261
REMARK  115  A    between atoms: _266  and  _268
REMARK  116  A    between atoms: _268  and  _269
REMARK  117  A    between atoms: _268  and  _271
REMARK  118  A    between atoms: _271  and  _272
REMARK  119  A    between atoms: _272  and  _273
REMARK  120  A    between atoms: _278  and  _280
REMARK  121  A    between atoms: _280  and  _281
REMARK  122  A    between atoms: _283  and  _285
REMARK  123  A    between atoms: _285  and  _286
REMARK  124  A    between atoms: _285  and  _288
REMARK  125  A    between atoms: _288  and  _289
REMARK  126  A    between atoms: _291  and  _293
REMARK  127  A    between atoms: _293  and  _294
REMARK  128  A    between atoms: _293  and  _296
REMARK  129  A    between atoms: _296  and  _297
REMARK  130  A    between atoms: _297  and  _298
REMARK  131  A    between atoms: _298  and  _299
REMARK  132  A    between atoms: _308  and  _310
REMARK  133  A    between atoms: _310  and  _311
REMARK  134  A    between atoms: _314  and  _316
REMARK  135  A    between atoms: _316  and  _317
REMARK  136  A    between atoms: _316  and  _319
REMARK  137  A    between atoms: _322  and  _324
REMARK  138  A    between atoms: _324  and  _325
REMARK  139  A    between atoms: _327  and  _329
REMARK  140  A    between atoms: _329  and  _330
REMARK  141  A    between atoms: _332  and  _334
REMARK  142  A    between atoms: _334  and  _335
REMARK  143  A    between atoms: _334  and  _337
REMARK  144  A    between atoms: _337  and  _338
REMARK  145  A    between atoms: _341  and  _343
REMARK  146  A    between atoms: _343  and  _344
REMARK  147  A    between atoms: _347  and  _349
REMARK  148  A    between atoms: _349  and  _350
REMARK  149  A    between atoms: _349  and  _352
REMARK  150  A    between atoms: _355  and  _357
REMARK  151  A    between atoms: _357  and  _358
REMARK  152  A    between atoms: _360  and  _362
REMARK  153  A    between atoms: _362  and  _363
REMARK  154  A    between atoms: _362  and  _365
REMARK  155  A    between atoms: _365  and  _366
REMARK  156  A    between atoms: _366  and  _367
REMARK  157  A    between atoms: _370  and  _372
REMARK  158  A    between atoms: _372  and  _373
REMARK  159  A    between atoms: _372  and  _375
REMARK  160  A    between atoms: _375  and  _376
REMARK  161  A    between atoms: _376  and  _377
REMARK  162  A    between atoms: _379  and  _381
REMARK  163  A    between atoms: _381  and  _382
REMARK  164  A    between atoms: _381  and  _384
REMARK  165  A    between atoms: _384  and  _385
REMARK  166  A    between atoms: _390  and  _391
REMARK  167  A    between atoms: _393  and  _395
REMARK  168  A    between atoms: _395  and  _396
REMARK  169  A    between atoms: _395  and  _398
REMARK  170  A    between atoms: _398  and  _399
REMARK  171  A    between atoms: _402  and  _404
REMARK  172  A    between atoms: _404  and  _405
REMARK  173  A    between atoms: _404  and  _407
REMARK  174  A    between atoms: _407  and  _408
REMARK  175  A    between atoms: _408  and  _409
REMARK  176  A    between atoms: _411  and  _413
REMARK  177  A    between atoms: _413  and  _414
REMARK  178  A    between atoms: _416  and  _418
REMARK  179  A    between atoms: _418  and  _419
REMARK  180  A    between atoms: _418  and  _421
REMARK  181  A    between atoms: _424  and  _426
REMARK  182  A    between atoms: _426  and  _427
REMARK  183  A    between atoms: _429  and  _431
REMARK  184  A    between atoms: _431  and  _432
REMARK  185  A    between atoms: _431  and  _434
REMARK  186  A    between atoms: _434  and  _435
REMARK  187  A    between atoms: _441  and  _443
REMARK  188  A    between atoms: _443  and  _444
REMARK  189  A    between atoms: _443  and  _446
REMARK  190  A    between atoms: _446  and  _447
REMARK  191  A    between atoms: _450  and  _452
REMARK  192  A    between atoms: _452  and  _453
REMARK  193  A    between atoms: _452  and  _455
REMARK  194  A    between atoms: _457  and  _459
REMARK  195  A    between atoms: _459  and  _460
REMARK  196  A    between atoms: _459  and  _462
REMARK  197  A    between atoms: _465  and  _467
REMARK  198  A    between atoms: _467  and  _468
REMARK  199  A    between atoms: _467  and  _470
REMARK  200  A    between atoms: _470  and  _471
REMARK  201  A    between atoms: _474  and  _476
REMARK  202  A    between atoms: _476  and  _477
REMARK  203  A    between atoms: _476  and  _479
REMARK  204  A    between atoms: _479  and  _480
REMARK  205  A    between atoms: _480  and  _481
REMARK  206  A    between atoms: _481  and  _482
REMARK                            x       y       z     vdW  Elec       q    Type
REMARK                         _______ _______ _______ _____ _____    ______ ____
ROOT
ATOM      1  CA  ASP A   4      15.376  18.178  29.350  0.00  0.00    +0.160 C 
ENDROOT
BRANCH   1   4
ATOM      2  C   PHE A   3      13.559  16.845  30.378  0.00  0.00    +0.241 C 
ATOM      3  O   PHE A   3      14.010  16.923  31.524  0.00  0.00    -0.273 OA
ATOM      4  N   ASP A   4      14.163  17.418  29.360  0.00  0.00    -0.297 N 
ATOM      5  H   ASP A   4      13.696  17.304  28.438  0.00  0.00    +0.150 HD
BRANCH   2   6
ATOM      6  CA  PHE A   3      12.273  16.092  30.057  0.00  0.00    +0.153 C 
BRANCH   6   8
ATOM      7  C   ALA A   2      13.100  13.828  29.639  0.00  0.00    +0.241 C 
ATOM      8  N   PHE A   3      12.438  14.683  30.394  0.00  0.00    -0.297 N 
ATOM      9  H   PHE A   3      12.011  14.334  31.276  0.00  0.00    +0.150 HD
ATOM     10  O   ALA A   2      13.537  14.104  28.515  0.00  0.00    -0.273 OA
BRANCH   7  11
ATOM     11  CA  ALA A   2      13.306  12.447  30.263  0.00  0.00    +0.149 C 
ATOM     12  CB  ALA A   2      14.611  12.428  31.030  0.00  0.00    +0.031 C 
BRANCH  11  14
ATOM     13  C   MET A   1      12.243  11.269  28.413  0.00  0.00    +0.238 C 
ATOM     14  N   ALA A   2      13.278  11.437  29.213  0.00  0.00    -0.297 N 
ATOM     15  H   ALA A   2      14.108  10.823  29.089  0.00  0.00    +0.150 HD
ATOM     16  O   MET A   1      11.163  11.836  28.561  0.00  0.00    -0.274 OA
BRANCH  13  17
ATOM     17  CA  MET A   1      12.390  10.334  27.217  0.00  0.00    +0.146 C 
BRANCH  17  18
ATOM     18  N   MET A   1      11.158   9.583  27.042  0.00  0.00    -0.238 NA
ATOM     19  H   MET A   1      10.351  10.019  26.552  0.00  0.00    +0.142 HD
ENDBRANCH  17  18
BRANCH  17  20
ATOM     20  CB  MET A   1      12.725  11.181  25.988  0.00  0.00    +0.038 C 
BRANCH  20  21
ATOM     21  CG  MET A   1      12.962  10.389  24.715  0.00  0.00    +0.060 C 
BRANCH  21  22
ATOM     22  SD  MET A   1      14.248   9.150  24.873  0.00  0.00    -0.139 S 
ATOM     23  CE  MET A   1      15.681  10.198  25.186  0.00  0.00    +0.069 C 
ENDBRANCH  21  22
ENDBRANCH  20  21
ENDBRANCH  17  20
ENDBRANCH  13  17
ENDBRANCH  11  14
ENDBRANCH   7  11
ENDBRANCH   6   8
BRANCH   6  24
ATOM     24  CB  PHE A   3      11.090  16.671  30.823  0.00  0.00    +0.055 C 
BRANCH  24  25
ATOM     25  CG  PHE A   3      10.739  18.078  30.358  0.00  0.00    -0.020 A 
ATOM     26  CD2 PHE A   3      10.916  19.164  31.200  0.00  0.00    -0.004 A 
ATOM     27  CE2 PHE A   3      10.604  20.444  30.759  0.00  0.00    -0.000 A 
ATOM     28  CZ  PHE A   3      10.064  20.624  29.509  0.00  0.00    -0.000 A 
ATOM     29  CE1 PHE A   3       9.907  19.544  28.662  0.00  0.00    -0.000 A 
ATOM     30  CD1 PHE A   3      10.240  18.268  29.088  0.00  0.00    -0.004 A 
ENDBRANCH  24  25
ENDBRANCH   6  24
ENDBRANCH   2   6
ENDBRANCH   1   4
BRANCH   1  31
ATOM     31  C   ASP A   4      15.146  19.578  28.785  0.00  0.00    +0.241 C 
ATOM     32  N   GLU A   5      16.094  20.443  28.846  0.00  0.00    -0.297 N 
ATOM     33  H   GLU A   5      16.818  20.083  29.500  0.00  0.00    +0.150 HD
ATOM     34  O   ASP A   4      14.089  19.934  28.284  0.00  0.00    -0.273 OA
BRANCH  32  35
ATOM     35  CA  GLU A   5      16.530  21.708  28.358  0.00  0.00    +0.149 C 
BRANCH  35  36
ATOM     36  C   GLU A   5      17.661  21.476  27.356  0.00  0.00    +0.241 C 
ATOM     37  O   GLU A   5      18.790  21.208  27.765  0.00  0.00    -0.273 OA
ATOM     38  N   CYS A   6      17.342  21.553  26.073  0.00  0.00    -0.296 N 
ATOM     39  H   CYS A   6      16.354  21.743  25.810  0.00  0.00    +0.150 HD
BRANCH  38  40
ATOM     40  CA  CYS A   6      18.330  21.380  25.019  0.00  0.00    +0.160 C 
BRANCH  40  41
ATOM     41  C   CYS A   6      19.028  22.729  24.763  0.00  0.00    +0.242 C 
ATOM     42  N   THR A   7      20.274  22.834  25.158  0.00  0.00    -0.296 N 
ATOM     43  H   THR A   7      20.649  21.941  25.537  0.00  0.00    +0.150 HD
ATOM     44  O   CYS A   6      18.411  23.639  24.220  0.00  0.00    -0.273 OA
BRANCH  42  45
ATOM     45  CA  THR A   7      21.249  23.903  25.190  0.00  0.00    +0.164 C 
BRANCH  45  46
ATOM     46  C   THR A   7      21.583  24.371  23.773  0.00  0.00    +0.229 C 
ATOM     47  O   THR A   7      22.142  23.659  22.936  0.00  0.00    -0.286 OA
ENDBRANCH  45  46
BRANCH  45  48
ATOM     48  CB  THR A   7      22.552  23.475  25.908  0.00  0.00    +0.136 C 
ATOM     49  CG2 THR A   7      23.453  24.682  26.161  0.00  0.00    +0.034 C 
BRANCH  48  50
ATOM     50  OG1 THR A   7      22.319  22.880  27.209  0.00  0.00    -0.382 OA
ATOM     51  HG1 THR A   7      23.186  22.629  27.616  0.00  0.00    +0.210 HD
ENDBRANCH  48  50
ENDBRANCH  45  48
ENDBRANCH  42  45
ENDBRANCH  40  41
BRANCH  40  52
ATOM     52  CB  CYS A   6      17.695  20.820  23.750  0.00  0.00    +0.098 C 
ATOM     53  SG  CYS A   6      18.837  20.774  22.343  0.00  0.00    -0.080 S 
ENDBRANCH  40  52
ENDBRANCH  38  40
ENDBRANCH  35  36
BRANCH  35  54
ATOM     54  CB  GLU A   5      16.993  22.616  29.506  0.00  0.00    +0.041 C 
BRANCH  54  55
ATOM     55  CG  GLU A   5      16.933  24.091  29.116  0.00  0.00    +0.116 C 
BRANCH  55  56
ATOM     56  CD  GLU A   5      17.211  25.036  30.262  0.00  0.00    +0.365 C 
ATOM     57  OE2 GLU A   5      16.280  25.634  30.846  0.00  0.00    -0.246 OA
ATOM     58  OE1 GLU A   5      18.409  25.188  30.581  0.00  0.00    -0.246 OA
ENDBRANCH  55  56
ENDBRANCH  54  55
ENDBRANCH  35  54
ENDBRANCH  32  35
ENDBRANCH   1  31
BRANCH   1  59
ATOM     59  CB  ASP A   4      16.419  17.389  28.556  0.00  0.00    +0.143 C 
BRANCH  59  60
ATOM     60  CG  ASP A   4      16.142  17.213  27.074  0.00  0.00    +0.367 C 
ATOM     61  OD2 ASP A   4      14.954  17.174  26.659  0.00  0.00    -0.246 OA
ATOM     62  OD1 ASP A   4      17.119  17.131  26.299  0.00  0.00    -0.246 OA
ENDBRANCH  59  60
ENDBRANCH   1  59
TORSDOF 27
REMARK  Name = ../refined-set-2016/3gc4/3gc4_pocket.pdb
REMARK  206 active torsions:
REMARK  status: ('A' for Active; 'I' for Inactive)
REMARK    1  A    between atoms: _1  and  _3
REMARK    2  A    between atoms: _3  and  _4
REMARK    3  A    between atoms: _3  and  _6
REMARK    4  A    between atoms: _6  and  _7
REMARK    5  A    between atoms: _7  and  _8
REMARK    6  A    between atoms: _10  and  _12
REMARK    7  A    between atoms: _12  and  _13
REMARK    8  A    between atoms: _12  and  _15
REMARK    9  A    between atoms: _18  and  _20
REMARK   10  A    between atoms: _20  and  _21
REMARK   11  A    between atoms: _23  and  _25
REMARK   12  A    between atoms: _25  and  _26
REMARK   13  A    between atoms: _25  and  _28
REMARK   14  A    between atoms: _28  and  _29
REMARK   15  A    between atoms: _32  and  _34
REMARK   16  A    between atoms: _34  and  _35
REMARK   17  A    between atoms: _34  and  _37
REMARK   18  A    between atoms: _37  and  _38
REMARK   19  A    between atoms: _38  and  _39
REMARK   20  A    between atoms: _39  and  _40
REMARK   21  A    between atoms: _40  and  _41
REMARK   22  A    between atoms: _45  and  _47
REMARK   23  A    between atoms: _47  and  _48
REMARK   24  A    between atoms: _47  and  _50
REMARK   25  A    between atoms: _50  and  _51
REMARK   26  A    between atoms: _54  and  _56
REMARK   27  A    between atoms: _56  and  _57
REMARK   28  A    between atoms: _59  and  _61
REMARK   29  A    between atoms: _61  and  _62
REMARK   30  A    between atoms: _61  and  _64
REMARK   31  A    between atoms: _64  and  _65
REMARK   32  A    between atoms: _70  and  _72
REMARK   33  A    between atoms: _72  and  _73
REMARK   34  A    between atoms: _72  and  _75
REMARK   35  A    between atoms: _75  and  _76
REMARK   36  A    between atoms: _79  and  _81
REMARK   37  A    between atoms: _81  and  _82
REMARK   38  A    between atoms: _81  and  _84
REMARK   39  A    between atoms: _84  and  _85
REMARK   40  A    between atoms: _90  and  _91
REMARK   41  A    between atoms: _93  and  _95
REMARK   42  A    between atoms: _95  and  _96
REMARK   43  A    between atoms: _95  and  _98
REMARK   44  A    between atoms: _98  and  _99
REMARK   45  A    between atoms: _104  and  _106
REMARK   46  A    between atoms: _106  and  _107
REMARK   47  A    between atoms: _106  and  _109
REMARK   48  A    between atoms: _109  and  _110
REMARK   49  A    between atoms: _113  and  _115
REMARK   50  A    between atoms: _115  and  _116
REMARK   51  A    between atoms: _115  and  _118
REMARK   52  A    between atoms: _118  and  _119
REMARK   53  A    between atoms: _122  and  _124
REMARK   54  A    between atoms: _124  and  _125
REMARK   55  A    between atoms: _124  and  _127
REMARK   56  A    between atoms: _127  and  _128
REMARK   57  A    between atoms: _131  and  _133
REMARK   58  A    between atoms: _133  and  _134
REMARK   59  A    between atoms: _133  and  _136
REMARK   60  A    between atoms: _136  and  _137
REMARK   61  A    between atoms: _139  and  _141
REMARK   62  A    between atoms: _141  and  _142
REMARK   63  A    between atoms: _144  and  _146
REMARK   64  A    between atoms: _146  and  _147
REMARK   65  A    between atoms: _149  and  _151
REMARK   66  A    between atoms: _151  and  _152
REMARK   67  A    between atoms: _151  and  _154
REMARK   68  A    between atoms: _154  and  _155
REMARK   69  A    between atoms: _160  and  _161
REMARK   70  A    between atoms: _163  and  _165
REMARK   71  A    between atoms: _165  and  _166
REMARK   72  A    between atoms: _165  and  _168
REMARK   73  A    between atoms: _168  and  _169
REMARK   74  A    between atoms: _169  and  _170
REMARK   75  A    between atoms: _175  and  _177
REMARK   76  A    between atoms: _177  and  _178
REMARK   77  A    between atoms: _177  and  _180
REMARK   78  A    between atoms: _180  and  _181
REMARK   79  A    between atoms: _181  and  _182
REMARK   80  A    between atoms: _184  and  _186
REMARK   81  A    between atoms: _186  and  _187
REMARK   82  A    between atoms: _190  and  _192
REMARK   83  A    between atoms: _192  and  _193
REMARK   84  A    between atoms: _192  and  _195
REMARK   85  A    between atoms: _195  and  _196
REMARK   86  A    between atoms: _202  and  _204
REMARK   87  A    between atoms: _204  and  _205
REMARK   88  A    between atoms: _204  and  _207
REMARK   89  A    between atoms: _207  and  _208
REMARK   90  A    between atoms: _211  and  _213
REMARK   91  A    between atoms: _213  and  _214
REMARK   92  A    between atoms: _213  and  _216
REMARK   93  A    between atoms: _216  and  _217
REMARK   94  A    between atoms: _217  and  _218
REMARK   95  A    between atoms: _221  and  _223
REMARK   96  A    between atoms: _223  and  _224
REMARK   97  A    between atoms: _223  and  _226
REMARK   98  A    between atoms: _228  and  _230
REMARK   99  A    between atoms: _230  and  _231
REMARK  100  A    between atoms: _230  and  _233
REMARK  101  A    between atoms: _233  and  _234
REMARK  102  A    between atoms: _237  and  _239
REMARK  103  A    between atoms: _239  and  _240
REMARK  104  A    between atoms: _239  and  _242
REMARK  105  A    between atoms: _242  and  _243
REMARK  106  A    between atoms: _245  and  _247
REMARK  107  A    between atoms: _247  and  _248
REMARK  108  A    between atoms: _247  and  _250
REMARK  109  A    between atoms: _250  and  _251
REMARK  110  A    between atoms: _254  and  _256
REMARK  111  A    between atoms: _256  and  _257
REMARK  112  A    between atoms: _256  and  _259
REMARK  113  A    between atoms: _259  and  _260
REMARK  114  A    between atoms: _260  and  _261
REMARK  115  A    between atoms: _266  and  _268
REMARK  116  A    between atoms: _268  and  _269
REMARK  117  A    between atoms: _268  and  _271
REMARK  118  A    between atoms: _271  and  _272
REMARK  119  A    between atoms: _272  and  _273
REMARK  120  A    between atoms: _278  and  _280
REMARK  121  A    between atoms: _280  and  _281
REMARK  122  A    between atoms: _283  and  _285
REMARK  123  A    between atoms: _285  and  _286
REMARK  124  A    between atoms: _285  and  _288
REMARK  125  A    between atoms: _288  and  _289
REMARK  126  A    between atoms: _291  and  _293
REMARK  127  A    between atoms: _293  and  _294
REMARK  128  A    between atoms: _293  and  _296
REMARK  129  A    between atoms: _296  and  _297
REMARK  130  A    between atoms: _297  and  _298
REMARK  131  A    between atoms: _298  and  _299
REMARK  132  A    between atoms: _308  and  _310
REMARK  133  A    between atoms: _310  and  _311
REMARK  134  A    between atoms: _314  and  _316
REMARK  135  A    between atoms: _316  and  _317
REMARK  136  A    between atoms: _316  and  _319
REMARK  137  A    between atoms: _322  and  _324
REMARK  138  A    between atoms: _324  and  _325
REMARK  139  A    between atoms: _327  and  _329
REMARK  140  A    between atoms: _329  and  _330
REMARK  141  A    between atoms: _332  and  _334
REMARK  142  A    between atoms: _334  and  _335
REMARK  143  A    between atoms: _334  and  _337
REMARK  144  A    between atoms: _337  and  _338
REMARK  145  A    between atoms: _341  and  _343
REMARK  146  A    between atoms: _343  and  _344
REMARK  147  A    between atoms: _347  and  _349
REMARK  148  A    between atoms: _349  and  _350
REMARK  149  A    between atoms: _349  and  _352
REMARK  150  A    between atoms: _355  and  _357
REMARK  151  A    between atoms: _357  and  _358
REMARK  152  A    between atoms: _360  and  _362
REMARK  153  A    between atoms: _362  and  _363
REMARK  154  A    between atoms: _362  and  _365
REMARK  155  A    between atoms: _365  and  _366
REMARK  156  A    between atoms: _366  and  _367
REMARK  157  A    between atoms: _370  and  _372
REMARK  158  A    between atoms: _372  and  _373
REMARK  159  A    between atoms: _372  and  _375
REMARK  160  A    between atoms: _375  and  _376
REMARK  161  A    between atoms: _376  and  _377
REMARK  162  A    between atoms: _379  and  _381
REMARK  163  A    between atoms: _381  and  _382
REMARK  164  A    between atoms: _381  and  _384
REMARK  165  A    between atoms: _384  and  _385
REMARK  166  A    between atoms: _390  and  _391
REMARK  167  A    between atoms: _393  and  _395
REMARK  168  A    between atoms: _395  and  _396
REMARK  169  A    between atoms: _395  and  _398
REMARK  170  A    between atoms: _398  and  _399
REMARK  171  A    between atoms: _402  and  _404
REMARK  172  A    between atoms: _404  and  _405
REMARK  173  A    between atoms: _404  and  _407
REMARK  174  A    between atoms: _407  and  _408
REMARK  175  A    between atoms: _408  and  _409
REMARK  176  A    between atoms: _411  and  _413
REMARK  177  A    between atoms: _413  and  _414
REMARK  178  A    between atoms: _416  and  _418
REMARK  179  A    between atoms: _418  and  _419
REMARK  180  A    between atoms: _418  and  _421
REMARK  181  A    between atoms: _424  and  _426
REMARK  182  A    between atoms: _426  and  _427
REMARK  183  A    between atoms: _429  and  _431
REMARK  184  A    between atoms: _431  and  _432
REMARK  185  A    between atoms: _431  and  _434
REMARK  186  A    between atoms: _434  and  _435
REMARK  187  A    between atoms: _441  and  _443
REMARK  188  A    between atoms: _443  and  _444
REMARK  189  A    between atoms: _443  and  _446
REMARK  190  A    between atoms: _446  and  _447
REMARK  191  A    between atoms: _450  and  _452
REMARK  192  A    between atoms: _452  and  _453
REMARK  193  A    between atoms: _452  and  _455
REMARK  194  A    between atoms: _457  and  _459
REMARK  195  A    between atoms: _459  and  _460
REMARK  196  A    between atoms: _459  and  _462
REMARK  197  A    between atoms: _465  and  _467
REMARK  198  A    between atoms: _467  and  _468
REMARK  199  A    between atoms: _467  and  _470
REMARK  200  A    between atoms: _470  and  _471
REMARK  201  A    between atoms: _474  and  _476
REMARK  202  A    between atoms: _476  and  _477
REMARK  203  A    between atoms: _476  and  _479
REMARK  204  A    between atoms: _479  and  _480
REMARK  205  A    between atoms: _480  and  _481
REMARK  206  A    between atoms: _481  and  _482
REMARK                            x       y       z     vdW  Elec       q    Type
REMARK                         _______ _______ _______ _____ _____    ______ ____
ROOT
ATOM      1  CA  SER A   1      18.492  18.982  32.989  0.00  0.00    +0.163 C 
ENDROOT
BRANCH   1   2
ATOM      2  N   SER A   1      18.938  20.222  33.585  0.00  0.00    -0.237 NA
ATOM      3  H   SER A   1      19.687  20.786  33.134  0.00  0.00    +0.142 HD
ENDBRANCH   1   2
BRANCH   1   4
ATOM      4  CB  SER A   1      18.681  17.797  33.915  0.00  0.00    +0.227 C 
ATOM      5  OG  SER A   1      17.874  16.868  33.917  0.00  0.00    -0.287 OA
ENDBRANCH   1   4
BRANCH   1   6
ATOM      6  C   SER A   1      19.285  18.625  31.720  0.00  0.00    +0.162 C 
BRANCH   6   7
ATOM      7  O   SER A   1      19.027  19.603  30.766  0.00  0.00    -0.380 OA
ATOM      8  H   SER A   1      19.313  20.485  31.113  0.00  0.00    +0.211 HD
ENDBRANCH   6   7
ENDBRANCH   1   6
TORSDOF 4
REMARK  Name = ../refined-set-2016/3gc4/3gc4_pocket.pdb
REMARK  206 active torsions:
REMARK  status: ('A' for Active; 'I' for Inactive)
REMARK    1  A    between atoms: _1  and  _3
REMARK    2  A    between atoms: _3  and  _4
REMARK    3  A    between atoms: _3  and  _6
REMARK    4  A    between atoms: _6  and  _7
REMARK    5  A    between atoms: _7  and  _8
REMARK    6  A    between atoms: _10  and  _12
REMARK    7  A    between atoms: _12  and  _13
REMARK    8  A    between atoms: _12  and  _15
REMARK    9  A    between atoms: _18  and  _20
REMARK   10  A    between atoms: _20  and  _21
REMARK   11  A    between atoms: _23  and  _25
REMARK   12  A    between atoms: _25  and  _26
REMARK   13  A    between atoms: _25  and  _28
REMARK   14  A    between atoms: _28  and  _29
REMARK   15  A    between atoms: _32  and  _34
REMARK   16  A    between atoms: _34  and  _35
REMARK   17  A    between atoms: _34  and  _37
REMARK   18  A    between atoms: _37  and  _38
REMARK   19  A    between atoms: _38  and  _39
REMARK   20  A    between atoms: _39  and  _40
REMARK   21  A    between atoms: _40  and  _41
REMARK   22  A    between atoms: _45  and  _47
REMARK   23  A    between atoms: _47  and  _48
REMARK   24  A    between atoms: _47  and  _50
REMARK   25  A    between atoms: _50  and  _51
REMARK   26  A    between atoms: _54  and  _56
REMARK   27  A    between atoms: _56  and  _57
REMARK   28  A    between atoms: _59  and  _61
REMARK   29  A    between atoms: _61  and  _62
REMARK   30  A    between atoms: _61  and  _64
REMARK   31  A    between atoms: _64  and  _65
REMARK   32  A    between atoms: _70  and  _72
REMARK   33  A    between atoms: _72  and  _73
REMARK   34  A    between atoms: _72  and  _75
REMARK   35  A    between atoms: _75  and  _76
REMARK   36  A    between atoms: _79  and  _81
REMARK   37  A    between atoms: _81  and  _82
REMARK   38  A    between atoms: _81  and  _84
REMARK   39  A    between atoms: _84  and  _85
REMARK   40  A    between atoms: _90  and  _91
REMARK   41  A    between atoms: _93  and  _95
REMARK   42  A    between atoms: _95  and  _96
REMARK   43  A    between atoms: _95  and  _98
REMARK   44  A    between atoms: _98  and  _99
REMARK   45  A    between atoms: _104  and  _106
REMARK   46  A    between atoms: _106  and  _107
REMARK   47  A    between atoms: _106  and  _109
REMARK   48  A    between atoms: _109  and  _110
REMARK   49  A    between atoms: _113  and  _115
REMARK   50  A    between atoms: _115  and  _116
REMARK   51  A    between atoms: _115  and  _118
REMARK   52  A    between atoms: _118  and  _119
REMARK   53  A    between atoms: _122  and  _124
REMARK   54  A    between atoms: _124  and  _125
REMARK   55  A    between atoms: _124  and  _127
REMARK   56  A    between atoms: _127  and  _128
REMARK   57  A    between atoms: _131  and  _133
REMARK   58  A    between atoms: _133  and  _134
REMARK   59  A    between atoms: _133  and  _136
REMARK   60  A    between atoms: _136  and  _137
REMARK   61  A    between atoms: _139  and  _141
REMARK   62  A    between atoms: _141  and  _142
REMARK   63  A    between atoms: _144  and  _146
REMARK   64  A    between atoms: _146  and  _147
REMARK   65  A    between atoms: _149  and  _151
REMARK   66  A    between atoms: _151  and  _152
REMARK   67  A    between atoms: _151  and  _154
REMARK   68  A    between atoms: _154  and  _155
REMARK   69  A    between atoms: _160  and  _161
REMARK   70  A    between atoms: _163  and  _165
REMARK   71  A    between atoms: _165  and  _166
REMARK   72  A    between atoms: _165  and  _168
REMARK   73  A    between atoms: _168  and  _169
REMARK   74  A    between atoms: _169  and  _170
REMARK   75  A    between atoms: _175  and  _177
REMARK   76  A    between atoms: _177  and  _178
REMARK   77  A    between atoms: _177  and  _180
REMARK   78  A    between atoms: _180  and  _181
REMARK   79  A    between atoms: _181  and  _182
REMARK   80  A    between atoms: _184  and  _186
REMARK   81  A    between atoms: _186  and  _187
REMARK   82  A    between atoms: _190  and  _192
REMARK   83  A    between atoms: _192  and  _193
REMARK   84  A    between atoms: _192  and  _195
REMARK   85  A    between atoms: _195  and  _196
REMARK   86  A    between atoms: _202  and  _204
REMARK   87  A    between atoms: _204  and  _205
REMARK   88  A    between atoms: _204  and  _207
REMARK   89  A    between atoms: _207  and  _208
REMARK   90  A    between atoms: _211  and  _213
REMARK   91  A    between atoms: _213  and  _214
REMARK   92  A    between atoms: _213  and  _216
REMARK   93  A    between atoms: _216  and  _217
REMARK   94  A    between atoms: _217  and  _218
REMARK   95  A    between atoms: _221  and  _223
REMARK   96  A    between atoms: _223  and  _224
REMARK   97  A    between atoms: _223  and  _226
REMARK   98  A    between atoms: _228  and  _230
REMARK   99  A    between atoms: _230  and  _231
REMARK  100  A    between atoms: _230  and  _233
REMARK  101  A    between atoms: _233  and  _234
REMARK  102  A    between atoms: _237  and  _239
REMARK  103  A    between atoms: _239  and  _240
REMARK  104  A    between atoms: _239  and  _242
REMARK  105  A    between atoms: _242  and  _243
REMARK  106  A    between atoms: _245  and  _247
REMARK  107  A    between atoms: _247  and  _248
REMARK  108  A    between atoms: _247  and  _250
REMARK  109  A    between atoms: _250  and  _251
REMARK  110  A    between atoms: _254  and  _256
REMARK  111  A    between atoms: _256  and  _257
REMARK  112  A    between atoms: _256  and  _259
REMARK  113  A    between atoms: _259  and  _260
REMARK  114  A    between atoms: _260  and  _261
REMARK  115  A    between atoms: _266  and  _268
REMARK  116  A    between atoms: _268  and  _269
REMARK  117  A    between atoms: _268  and  _271
REMARK  118  A    between atoms: _271  and  _272
REMARK  119  A    between atoms: _272  and  _273
REMARK  120  A    between atoms: _278  and  _280
REMARK  121  A    between atoms: _280  and  _281
REMARK  122  A    between atoms: _283  and  _285
REMARK  123  A    between atoms: _285  and  _286
REMARK  124  A    between atoms: _285  and  _288
REMARK  125  A    between atoms: _288  and  _289
REMARK  126  A    between atoms: _291  and  _293
REMARK  127  A    between atoms: _293  and  _294
REMARK  128  A    between atoms: _293  and  _296
REMARK  129  A    between atoms: _296  and  _297
REMARK  130  A    between atoms: _297  and  _298
REMARK  131  A    between atoms: _298  and  _299
REMARK  132  A    between atoms: _308  and  _310
REMARK  133  A    between atoms: _310  and  _311
REMARK  134  A    between atoms: _314  and  _316
REMARK  135  A    between atoms: _316  and  _317
REMARK  136  A    between atoms: _316  and  _319
REMARK  137  A    between atoms: _322  and  _324
REMARK  138  A    between atoms: _324  and  _325
REMARK  139  A    between atoms: _327  and  _329
REMARK  140  A    between atoms: _329  and  _330
REMARK  141  A    between atoms: _332  and  _334
REMARK  142  A    between atoms: _334  and  _335
REMARK  143  A    between atoms: _334  and  _337
REMARK  144  A    between atoms: _337  and  _338
REMARK  145  A    between atoms: _341  and  _343
REMARK  146  A    between atoms: _343  and  _344
REMARK  147  A    between atoms: _347  and  _349
REMARK  148  A    between atoms: _349  and  _350
REMARK  149  A    between atoms: _349  and  _352
REMARK  150  A    between atoms: _355  and  _357
REMARK  151  A    between atoms: _357  and  _358
REMARK  152  A    between atoms: _360  and  _362
REMARK  153  A    between atoms: _362  and  _363
REMARK  154  A    between atoms: _362  and  _365
REMARK  155  A    between atoms: _365  and  _366
REMARK  156  A    between atoms: _366  and  _367
REMARK  157  A    between atoms: _370  and  _372
REMARK  158  A    between atoms: _372  and  _373
REMARK  159  A    between atoms: _372  and  _375
REMARK  160  A    between atoms: _375  and  _376
REMARK  161  A    between atoms: _376  and  _377
REMARK  162  A    between atoms: _379  and  _381
REMARK  163  A    between atoms: _381  and  _382
REMARK  164  A    between atoms: _381  and  _384
REMARK  165  A    between atoms: _384  and  _385
REMARK  166  A    between atoms: _390  and  _391
REMARK  167  A    between atoms: _393  and  _395
REMARK  168  A    between atoms: _395  and  _396
REMARK  169  A    between atoms: _395  and  _398
REMARK  170  A    between atoms: _398  and  _399
REMARK  171  A    between atoms: _402  and  _404
REMARK  172  A    between atoms: _404  and  _405
REMARK  173  A    between atoms: _404  and  _407
REMARK  174  A    between atoms: _407  and  _408
REMARK  175  A    between atoms: _408  and  _409
REMARK  176  A    between atoms: _411  and  _413
REMARK  177  A    between atoms: _413  and  _414
REMARK  178  A    between atoms: _416  and  _418
REMARK  179  A    between atoms: _418  and  _419
REMARK  180  A    between atoms: _418  and  _421
REMARK  181  A    between atoms: _424  and  _426
REMARK  182  A    between atoms: _426  and  _427
REMARK  183  A    between atoms: _429  and  _431
REMARK  184  A    between atoms: _431  and  _432
REMARK  185  A    between atoms: _431  and  _434
REMARK  186  A    between atoms: _434  and  _435
REMARK  187  A    between atoms: _441  and  _443
REMARK  188  A    between atoms: _443  and  _444
REMARK  189  A    between atoms: _443  and  _446
REMARK  190  A    between atoms: _446  and  _447
REMARK  191  A    between atoms: _450  and  _452
REMARK  192  A    between atoms: _452  and  _453
REMARK  193  A    between atoms: _452  and  _455
REMARK  194  A    between atoms: _457  and  _459
REMARK  195  A    between atoms: _459  and  _460
REMARK  196  A    between atoms: _459  and  _462
REMARK  197  A    between atoms: _465  and  _467
REMARK  198  A    between atoms: _467  and  _468
REMARK  199  A    between atoms: _467  and  _470
REMARK  200  A    between atoms: _470  and  _471
REMARK  201  A    between atoms: _474  and  _476
REMARK  202  A    between atoms: _476  and  _477
REMARK  203  A    between atoms: _476  and  _479
REMARK  204  A    between atoms: _479  and  _480
REMARK  205  A    between atoms: _480  and  _481
REMARK  206  A    between atoms: _481  and  _482
REMARK                            x       y       z     vdW  Elec       q    Type
REMARK                         _______ _______ _______ _____ _____    ______ ____
ROOT
ATOM      1  C   GLN A   2      23.112  15.101  27.717  0.00  0.00    +0.241 C 
ATOM      2  N   GLN A   3      23.379  16.215  28.335  0.00  0.00    -0.297 N 
ATOM      3  H   GLN A   3      23.368  16.098  29.368  0.00  0.00    +0.150 HD
ATOM      4  O   GLN A   2      22.882  15.136  26.508  0.00  0.00    -0.273 OA
ENDROOT
BRANCH   2   5
ATOM      5  CA  GLN A   3      23.683  17.558  27.953  0.00  0.00    +0.149 C 
BRANCH   5   6
ATOM      6  C   GLN A   3      25.123  17.913  28.285  0.00  0.00    +0.241 C 
ATOM      7  O   GLN A   3      25.951  17.055  28.595  0.00  0.00    -0.273 OA
ATOM      8  N   GLY A   4      25.471  19.186  28.197  0.00  0.00    -0.295 N 
ATOM      9  H   GLY A   4      24.742  19.900  27.996  0.00  0.00    +0.150 HD
BRANCH   8  10
ATOM     10  CA  GLY A   4      26.840  19.605  28.374  0.00  0.00    +0.176 C 
BRANCH  10  11
ATOM     11  C   GLY A   4      27.490  20.259  27.182  0.00  0.00    +0.243 C 
ATOM     12  O   GLY A   4      28.698  20.522  27.202  0.00  0.00    -0.273 OA
ATOM     13  N   SER A   5      26.732  20.532  26.127  0.00  0.00    -0.296 N 
ATOM     14  H   SER A   5      25.725  20.273  26.145  0.00  0.00    +0.150 HD
BRANCH  13  15
ATOM     15  CA  SER A   5      27.279  21.188  24.940  0.00  0.00    +0.166 C 
BRANCH  15  16
ATOM     16  C   SER A   5      28.486  20.435  24.400  0.00  0.00    +0.229 C 
ATOM     17  O   SER A   5      28.414  19.210  24.249  0.00  0.00    -0.286 OA
ENDBRANCH  15  16
BRANCH  15  18
ATOM     18  CB  SER A   5      27.606  22.643  25.275  0.00  0.00    +0.165 C 
BRANCH  18  19
ATOM     19  OG  SER A   5      27.951  23.352  24.093  0.00  0.00    -0.380 OA
ATOM     20  H   SER A   5      27.190  23.327  23.461  0.00  0.00    +0.211 HD
ENDBRANCH  18  19
ENDBRANCH  15  18
ENDBRANCH  13  15
ENDBRANCH  10  11
ENDBRANCH   8  10
ENDBRANCH   5   6
BRANCH   5  21
ATOM     21  CB  GLN A   3      22.655  18.481  28.642  0.00  0.00    +0.039 C 
BRANCH  21  22
ATOM     22  CG  GLN A   3      21.248  18.145  28.194  0.00  0.00    +0.087 C 
BRANCH  22  23
ATOM     23  CD  GLN A   3      21.040  18.370  26.706  0.00  0.00    +0.219 C 
ATOM     24  NE2 GLN A   3      19.917  17.829  26.213  0.00  0.00    -0.329 N 
ATOM     25 HE21 GLN A   3      19.274  17.305  26.840  0.00  0.00    +0.145 HD
ATOM     26 HE22 GLN A   3      19.689  17.934  25.204  0.00  0.00    +0.145 HD
ATOM     27  OE1 GLN A   3      21.854  19.006  26.030  0.00  0.00    -0.275 OA
ENDBRANCH  22  23
ENDBRANCH  21  22
ENDBRANCH   5  21
ENDBRANCH   2   5
BRANCH   1  28
ATOM     28  CA  GLN A   2      23.056  13.780  28.455  0.00  0.00    +0.149 C 
BRANCH  28  31
ATOM     29  C   ILE A   1      20.655  13.429  28.621  0.00  0.00    +0.238 C 
ATOM     30  O   ILE A   1      20.584  14.319  29.453  0.00  0.00    -0.274 OA
ATOM     31  N   GLN A   2      21.820  13.082  28.119  0.00  0.00    -0.297 N 
ATOM     32  H   GLN A   2      21.862  12.280  27.458  0.00  0.00    +0.150 HD
BRANCH  29  33
ATOM     33  CA  ILE A   1      19.472  12.623  28.101  0.00  0.00    +0.145 C 
BRANCH  33  34
ATOM     34  CB  ILE A   1      18.517  13.582  27.350  0.00  0.00    +0.025 C 
ATOM     35  CG2 ILE A   1      19.297  14.290  26.250  0.00  0.00    +0.002 C 
BRANCH  34  36
ATOM     36  CG1 ILE A   1      17.257  12.885  26.844  0.00  0.00    +0.002 C 
ATOM     37  CD1 ILE A   1      16.144  13.780  26.394  0.00  0.00    +0.000 C 
ENDBRANCH  34  36
ENDBRANCH  33  34
BRANCH  33  38
ATOM     38  N   ILE A   1      18.784  11.881  29.158  0.00  0.00    -0.238 NA
ATOM     39  H   ILE A   1      18.371  12.406  29.955  0.00  0.00    +0.142 HD
ENDBRANCH  33  38
ENDBRANCH  29  33
ENDBRANCH  28  31
BRANCH  28  40
ATOM     40  CB  GLN A   2      24.197  12.842  28.072  0.00  0.00    +0.039 C 
BRANCH  40  41
ATOM     41  CG  GLN A   2      25.554  13.377  28.427  0.00  0.00    +0.087 C 
BRANCH  41  42
ATOM     42  CD  GLN A   2      26.729  12.867  27.632  0.00  0.00    +0.219 C 
ATOM     43  OE1 GLN A   2      27.799  12.573  28.200  0.00  0.00    -0.275 OA
ATOM     44  NE2 GLN A   2      26.591  12.729  26.334  0.00  0.00    -0.329 N 
ATOM     45 HE21 GLN A   2      25.691  12.979  25.877  0.00  0.00    +0.145 HD
ATOM     46 HE22 GLN A   2      27.382  12.369  25.762  0.00  0.00    +0.145 HD
ENDBRANCH  41  42
ENDBRANCH  40  41
ENDBRANCH  28  40
ENDBRANCH   1  28
TORSDOF 20
REMARK  Name = ../refined-set-2016/3gc4/3gc4_pocket.pdb
REMARK  206 active torsions:
REMARK  status: ('A' for Active; 'I' for Inactive)
REMARK    1  A    between atoms: _1  and  _3
REMARK    2  A    between atoms: _3  and  _4
REMARK    3  A    between atoms: _3  and  _6
REMARK    4  A    between atoms: _6  and  _7
REMARK    5  A    between atoms: _7  and  _8
REMARK    6  A    between atoms: _10  and  _12
REMARK    7  A    between atoms: _12  and  _13
REMARK    8  A    between atoms: _12  and  _15
REMARK    9  A    between atoms: _18  and  _20
REMARK   10  A    between atoms: _20  and  _21
REMARK   11  A    between atoms: _23  and  _25
REMARK   12  A    between atoms: _25  and  _26
REMARK   13  A    between atoms: _25  and  _28
REMARK   14  A    between atoms: _28  and  _29
REMARK   15  A    between atoms: _32  and  _34
REMARK   16  A    between atoms: _34  and  _35
REMARK   17  A    between atoms: _34  and  _37
REMARK   18  A    between atoms: _37  and  _38
REMARK   19  A    between atoms: _38  and  _39
REMARK   20  A    between atoms: _39  and  _40
REMARK   21  A    between atoms: _40  and  _41
REMARK   22  A    between atoms: _45  and  _47
REMARK   23  A    between atoms: _47  and  _48
REMARK   24  A    between atoms: _47  and  _50
REMARK   25  A    between atoms: _50  and  _51
REMARK   26  A    between atoms: _54  and  _56
REMARK   27  A    between atoms: _56  and  _57
REMARK   28  A    between atoms: _59  and  _61
REMARK   29  A    between atoms: _61  and  _62
REMARK   30  A    between atoms: _61  and  _64
REMARK   31  A    between atoms: _64  and  _65
REMARK   32  A    between atoms: _70  and  _72
REMARK   33  A    between atoms: _72  and  _73
REMARK   34  A    between atoms: _72  and  _75
REMARK   35  A    between atoms: _75  and  _76
REMARK   36  A    between atoms: _79  and  _81
REMARK   37  A    between atoms: _81  and  _82
REMARK   38  A    between atoms: _81  and  _84
REMARK   39  A    between atoms: _84  and  _85
REMARK   40  A    between atoms: _90  and  _91
REMARK   41  A    between atoms: _93  and  _95
REMARK   42  A    between atoms: _95  and  _96
REMARK   43  A    between atoms: _95  and  _98
REMARK   44  A    between atoms: _98  and  _99
REMARK   45  A    between atoms: _104  and  _106
REMARK   46  A    between atoms: _106  and  _107
REMARK   47  A    between atoms: _106  and  _109
REMARK   48  A    between atoms: _109  and  _110
REMARK   49  A    between atoms: _113  and  _115
REMARK   50  A    between atoms: _115  and  _116
REMARK   51  A    between atoms: _115  and  _118
REMARK   52  A    between atoms: _118  and  _119
REMARK   53  A    between atoms: _122  and  _124
REMARK   54  A    between atoms: _124  and  _125
REMARK   55  A    between atoms: _124  and  _127
REMARK   56  A    between atoms: _127  and  _128
REMARK   57  A    between atoms: _131  and  _133
REMARK   58  A    between atoms: _133  and  _134
REMARK   59  A    between atoms: _133  and  _136
REMARK   60  A    between atoms: _136  and  _137
REMARK   61  A    between atoms: _139  and  _141
REMARK   62  A    between atoms: _141  and  _142
REMARK   63  A    between atoms: _144  and  _146
REMARK   64  A    between atoms: _146  and  _147
REMARK   65  A    between atoms: _149  and  _151
REMARK   66  A    between atoms: _151  and  _152
REMARK   67  A    between atoms: _151  and  _154
REMARK   68  A    between atoms: _154  and  _155
REMARK   69  A    between atoms: _160  and  _161
REMARK   70  A    between atoms: _163  and  _165
REMARK   71  A    between atoms: _165  and  _166
REMARK   72  A    between atoms: _165  and  _168
REMARK   73  A    between atoms: _168  and  _169
REMARK   74  A    between atoms: _169  and  _170
REMARK   75  A    between atoms: _175  and  _177
REMARK   76  A    between atoms: _177  and  _178
REMARK   77  A    between atoms: _177  and  _180
REMARK   78  A    between atoms: _180  and  _181
REMARK   79  A    between atoms: _181  and  _182
REMARK   80  A    between atoms: _184  and  _186
REMARK   81  A    between atoms: _186  and  _187
REMARK   82  A    between atoms: _190  and  _192
REMARK   83  A    between atoms: _192  and  _193
REMARK   84  A    between atoms: _192  and  _195
REMARK   85  A    between atoms: _195  and  _196
REMARK   86  A    between atoms: _202  and  _204
REMARK   87  A    between atoms: _204  and  _205
REMARK   88  A    between atoms: _204  and  _207
REMARK   89  A    between atoms: _207  and  _208
REMARK   90  A    between atoms: _211  and  _213
REMARK   91  A    between atoms: _213  and  _214
REMARK   92  A    between atoms: _213  and  _216
REMARK   93  A    between atoms: _216  and  _217
REMARK   94  A    between atoms: _217  and  _218
REMARK   95  A    between atoms: _221  and  _223
REMARK   96  A    between atoms: _223  and  _224
REMARK   97  A    between atoms: _223  and  _226
REMARK   98  A    between atoms: _228  and  _230
REMARK   99  A    between atoms: _230  and  _231
REMARK  100  A    between atoms: _230  and  _233
REMARK  101  A    between atoms: _233  and  _234
REMARK  102  A    between atoms: _237  and  _239
REMARK  103  A    between atoms: _239  and  _240
REMARK  104  A    between atoms: _239  and  _242
REMARK  105  A    between atoms: _242  and  _243
REMARK  106  A    between atoms: _245  and  _247
REMARK  107  A    between atoms: _247  and  _248
REMARK  108  A    between atoms: _247  and  _250
REMARK  109  A    between atoms: _250  and  _251
REMARK  110  A    between atoms: _254  and  _256
REMARK  111  A    between atoms: _256  and  _257
REMARK  112  A    between atoms: _256  and  _259
REMARK  113  A    between atoms: _259  and  _260
REMARK  114  A    between atoms: _260  and  _261
REMARK  115  A    between atoms: _266  and  _268
REMARK  116  A    between atoms: _268  and  _269
REMARK  117  A    between atoms: _268  and  _271
REMARK  118  A    between atoms: _271  and  _272
REMARK  119  A    between atoms: _272  and  _273
REMARK  120  A    between atoms: _278  and  _280
REMARK  121  A    between atoms: _280  and  _281
REMARK  122  A    between atoms: _283  and  _285
REMARK  123  A    between atoms: _285  and  _286
REMARK  124  A    between atoms: _285  and  _288
REMARK  125  A    between atoms: _288  and  _289
REMARK  126  A    between atoms: _291  and  _293
REMARK  127  A    between atoms: _293  and  _294
REMARK  128  A    between atoms: _293  and  _296
REMARK  129  A    between atoms: _296  and  _297
REMARK  130  A    between atoms: _297  and  _298
REMARK  131  A    between atoms: _298  and  _299
REMARK  132  A    between atoms: _308  and  _310
REMARK  133  A    between atoms: _310  and  _311
REMARK  134  A    between atoms: _314  and  _316
REMARK  135  A    between atoms: _316  and  _317
REMARK  136  A    between atoms: _316  and  _319
REMARK  137  A    between atoms: _322  and  _324
REMARK  138  A    between atoms: _324  and  _325
REMARK  139  A    between atoms: _327  and  _329
REMARK  140  A    between atoms: _329  and  _330
REMARK  141  A    between atoms: _332  and  _334
REMARK  142  A    between atoms: _334  and  _335
REMARK  143  A    between atoms: _334  and  _337
REMARK  144  A    between atoms: _337  and  _338
REMARK  145  A    between atoms: _341  and  _343
REMARK  146  A    between atoms: _343  and  _344
REMARK  147  A    between atoms: _347  and  _349
REMARK  148  A    between atoms: _349  and  _350
REMARK  149  A    between atoms: _349  and  _352
REMARK  150  A    between atoms: _355  and  _357
REMARK  151  A    between atoms: _357  and  _358
REMARK  152  A    between atoms: _360  and  _362
REMARK  153  A    between atoms: _362  and  _363
REMARK  154  A    between atoms: _362  and  _365
REMARK  155  A    between atoms: _365  and  _366
REMARK  156  A    between atoms: _366  and  _367
REMARK  157  A    between atoms: _370  and  _372
REMARK  158  A    between atoms: _372  and  _373
REMARK  159  A    between atoms: _372  and  _375
REMARK  160  A    between atoms: _375  and  _376
REMARK  161  A    between atoms: _376  and  _377
REMARK  162  A    between atoms: _379  and  _381
REMARK  163  A    between atoms: _381  and  _382
REMARK  164  A    between atoms: _381  and  _384
REMARK  165  A    between atoms: _384  and  _385
REMARK  166  A    between atoms: _390  and  _391
REMARK  167  A    between atoms: _393  and  _395
REMARK  168  A    between atoms: _395  and  _396
REMARK  169  A    between atoms: _395  and  _398
REMARK  170  A    between atoms: _398  and  _399
REMARK  171  A    between atoms: _402  and  _404
REMARK  172  A    between atoms: _404  and  _405
REMARK  173  A    between atoms: _404  and  _407
REMARK  174  A    between atoms: _407  and  _408
REMARK  175  A    between atoms: _408  and  _409
REMARK  176  A    between atoms: _411  and  _413
REMARK  177  A    between atoms: _413  and  _414
REMARK  178  A    between atoms: _416  and  _418
REMARK  179  A    between atoms: _418  and  _419
REMARK  180  A    between atoms: _418  and  _421
REMARK  181  A    between atoms: _424  and  _426
REMARK  182  A    between atoms: _426  and  _427
REMARK  183  A    between atoms: _429  and  _431
REMARK  184  A    between atoms: _431  and  _432
REMARK  185  A    between atoms: _431  and  _434
REMARK  186  A    between atoms: _434  and  _435
REMARK  187  A    between atoms: _441  and  _443
REMARK  188  A    between atoms: _443  and  _444
REMARK  189  A    between atoms: _443  and  _446
REMARK  190  A    between atoms: _446  and  _447
REMARK  191  A    between atoms: _450  and  _452
REMARK  192  A    between atoms: _452  and  _453
REMARK  193  A    between atoms: _452  and  _455
REMARK  194  A    between atoms: _457  and  _459
REMARK  195  A    between atoms: _459  and  _460
REMARK  196  A    between atoms: _459  and  _462
REMARK  197  A    between atoms: _465  and  _467
REMARK  198  A    between atoms: _467  and  _468
REMARK  199  A    between atoms: _467  and  _470
REMARK  200  A    between atoms: _470  and  _471
REMARK  201  A    between atoms: _474  and  _476
REMARK  202  A    between atoms: _476  and  _477
REMARK  203  A    between atoms: _476  and  _479
REMARK  204  A    between atoms: _479  and  _480
REMARK  205  A    between atoms: _480  and  _481
REMARK  206  A    between atoms: _481  and  _482
REMARK                            x       y       z     vdW  Elec       q    Type
REMARK                         _______ _______ _______ _____ _____    ______ ____
ROOT
ATOM      1  NE  ARG A   1      27.668  16.745  25.504  0.00  0.00    -0.265 N 
ATOM      2  HE  ARG A   1      28.260  17.568  25.271  0.00  0.00    +0.259 HD
ATOM      3  CZ  ARG A   1      26.475  16.661  24.946  0.00  0.00    +0.342 C 
ATOM      4  NH2 ARG A   1      25.708  15.613  25.209  0.00  0.00    -0.292 N 
ATOM      5 HH21 ARG A   1      26.048  14.867  25.849  0.00  0.00    +0.255 HD
ATOM      6 HH22 ARG A   1      24.766  15.536  24.775  0.00  0.00    +0.255 HD
ATOM      7  NH1 ARG A   1      25.986  17.562  24.132  0.00  0.00    -0.292 N 
ATOM      8 HH11 ARG A   1      26.546  18.404  23.892  0.00  0.00    +0.255 HD
ATOM      9 HH12 ARG A   1      25.037  17.435  23.726  0.00  0.00    +0.255 HD
ENDROOT
BRANCH   1  10
ATOM     10  CD  ARG A   1      28.216  15.736  26.444  0.00  0.00    +0.174 C 
BRANCH  10  11
ATOM     11  CG  ARG A   1      29.546  16.268  26.991  0.00  0.00    +0.045 C 
BRANCH  11  12
ATOM     12  CB  ARG A   1      30.084  15.461  28.161  0.00  0.00    +0.029 C 
BRANCH  12  13
ATOM     13  CA  ARG A   1      29.447  15.785  29.508  0.00  0.00    +0.133 C 
BRANCH  13  14
ATOM     14  N   ARG A   1      29.993  17.056  30.007  0.00  0.00    -0.239 NA
ATOM     15  H   ARG A   1      30.754  17.532  29.482  0.00  0.00    +0.142 HD
ENDBRANCH  13  14
BRANCH  13  16
ATOM     16  C   ARG A   1      29.654  14.695  30.536  0.00  0.00    +0.224 C 
ATOM     17  O   ARG A   1      28.779  13.869  30.812  0.00  0.00    -0.287 OA
ENDBRANCH  13  16
ENDBRANCH  12  13
ENDBRANCH  11  12
ENDBRANCH  10  11
ENDBRANCH   1  10
TORSDOF 6
REMARK  Name = ../refined-set-2016/3gc4/3gc4_pocket.pdb
REMARK  206 active torsions:
REMARK  status: ('A' for Active; 'I' for Inactive)
REMARK    1  A    between atoms: _1  and  _3
REMARK    2  A    between atoms: _3  and  _4
REMARK    3  A    between atoms: _3  and  _6
REMARK    4  A    between atoms: _6  and  _7
REMARK    5  A    between atoms: _7  and  _8
REMARK    6  A    between atoms: _10  and  _12
REMARK    7  A    between atoms: _12  and  _13
REMARK    8  A    between atoms: _12  and  _15
REMARK    9  A    between atoms: _18  and  _20
REMARK   10  A    between atoms: _20  and  _21
REMARK   11  A    between atoms: _23  and  _25
REMARK   12  A    between atoms: _25  and  _26
REMARK   13  A    between atoms: _25  and  _28
REMARK   14  A    between atoms: _28  and  _29
REMARK   15  A    between atoms: _32  and  _34
REMARK   16  A    between atoms: _34  and  _35
REMARK   17  A    between atoms: _34  and  _37
REMARK   18  A    between atoms: _37  and  _38
REMARK   19  A    between atoms: _38  and  _39
REMARK   20  A    between atoms: _39  and  _40
REMARK   21  A    between atoms: _40  and  _41
REMARK   22  A    between atoms: _45  and  _47
REMARK   23  A    between atoms: _47  and  _48
REMARK   24  A    between atoms: _47  and  _50
REMARK   25  A    between atoms: _50  and  _51
REMARK   26  A    between atoms: _54  and  _56
REMARK   27  A    between atoms: _56  and  _57
REMARK   28  A    between atoms: _59  and  _61
REMARK   29  A    between atoms: _61  and  _62
REMARK   30  A    between atoms: _61  and  _64
REMARK   31  A    between atoms: _64  and  _65
REMARK   32  A    between atoms: _70  and  _72
REMARK   33  A    between atoms: _72  and  _73
REMARK   34  A    between atoms: _72  and  _75
REMARK   35  A    between atoms: _75  and  _76
REMARK   36  A    between atoms: _79  and  _81
REMARK   37  A    between atoms: _81  and  _82
REMARK   38  A    between atoms: _81  and  _84
REMARK   39  A    between atoms: _84  and  _85
REMARK   40  A    between atoms: _90  and  _91
REMARK   41  A    between atoms: _93  and  _95
REMARK   42  A    between atoms: _95  and  _96
REMARK   43  A    between atoms: _95  and  _98
REMARK   44  A    between atoms: _98  and  _99
REMARK   45  A    between atoms: _104  and  _106
REMARK   46  A    between atoms: _106  and  _107
REMARK   47  A    between atoms: _106  and  _109
REMARK   48  A    between atoms: _109  and  _110
REMARK   49  A    between atoms: _113  and  _115
REMARK   50  A    between atoms: _115  and  _116
REMARK   51  A    between atoms: _115  and  _118
REMARK   52  A    between atoms: _118  and  _119
REMARK   53  A    between atoms: _122  and  _124
REMARK   54  A    between atoms: _124  and  _125
REMARK   55  A    between atoms: _124  and  _127
REMARK   56  A    between atoms: _127  and  _128
REMARK   57  A    between atoms: _131  and  _133
REMARK   58  A    between atoms: _133  and  _134
REMARK   59  A    between atoms: _133  and  _136
REMARK   60  A    between atoms: _136  and  _137
REMARK   61  A    between atoms: _139  and  _141
REMARK   62  A    between atoms: _141  and  _142
REMARK   63  A    between atoms: _144  and  _146
REMARK   64  A    between atoms: _146  and  _147
REMARK   65  A    between atoms: _149  and  _151
REMARK   66  A    between atoms: _151  and  _152
REMARK   67  A    between atoms: _151  and  _154
REMARK   68  A    between atoms: _154  and  _155
REMARK   69  A    between atoms: _160  and  _161
REMARK   70  A    between atoms: _163  and  _165
REMARK   71  A    between atoms: _165  and  _166
REMARK   72  A    between atoms: _165  and  _168
REMARK   73  A    between atoms: _168  and  _169
REMARK   74  A    between atoms: _169  and  _170
REMARK   75  A    between atoms: _175  and  _177
REMARK   76  A    between atoms: _177  and  _178
REMARK   77  A    between atoms: _177  and  _180
REMARK   78  A    between atoms: _180  and  _181
REMARK   79  A    between atoms: _181  and  _182
REMARK   80  A    between atoms: _184  and  _186
REMARK   81  A    between atoms: _186  and  _187
REMARK   82  A    between atoms: _190  and  _192
REMARK   83  A    between atoms: _192  and  _193
REMARK   84  A    between atoms: _192  and  _195
REMARK   85  A    between atoms: _195  and  _196
REMARK   86  A    between atoms: _202  and  _204
REMARK   87  A    between atoms: _204  and  _205
REMARK   88  A    between atoms: _204  and  _207
REMARK   89  A    between atoms: _207  and  _208
REMARK   90  A    between atoms: _211  and  _213
REMARK   91  A    between atoms: _213  and  _214
REMARK   92  A    between atoms: _213  and  _216
REMARK   93  A    between atoms: _216  and  _217
REMARK   94  A    between atoms: _217  and  _218
REMARK   95  A    between atoms: _221  and  _223
REMARK   96  A    between atoms: _223  and  _224
REMARK   97  A    between atoms: _223  and  _226
REMARK   98  A    between atoms: _228  and  _230
REMARK   99  A    between atoms: _230  and  _231
REMARK  100  A    between atoms: _230  and  _233
REMARK  101  A    between atoms: _233  and  _234
REMARK  102  A    between atoms: _237  and  _239
REMARK  103  A    between atoms: _239  and  _240
REMARK  104  A    between atoms: _239  and  _242
REMARK  105  A    between atoms: _242  and  _243
REMARK  106  A    between atoms: _245  and  _247
REMARK  107  A    between atoms: _247  and  _248
REMARK  108  A    between atoms: _247  and  _250
REMARK  109  A    between atoms: _250  and  _251
REMARK  110  A    between atoms: _254  and  _256
REMARK  111  A    between atoms: _256  and  _257
REMARK  112  A    between atoms: _256  and  _259
REMARK  113  A    between atoms: _259  and  _260
REMARK  114  A    between atoms: _260  and  _261
REMARK  115  A    between atoms: _266  and  _268
REMARK  116  A    between atoms: _268  and  _269
REMARK  117  A    between atoms: _268  and  _271
REMARK  118  A    between atoms: _271  and  _272
REMARK  119  A    between atoms: _272  and  _273
REMARK  120  A    between atoms: _278  and  _280
REMARK  121  A    between atoms: _280  and  _281
REMARK  122  A    between atoms: _283  and  _285
REMARK  123  A    between atoms: _285  and  _286
REMARK  124  A    between atoms: _285  and  _288
REMARK  125  A    between atoms: _288  and  _289
REMARK  126  A    between atoms: _291  and  _293
REMARK  127  A    between atoms: _293  and  _294
REMARK  128  A    between atoms: _293  and  _296
REMARK  129  A    between atoms: _296  and  _297
REMARK  130  A    between atoms: _297  and  _298
REMARK  131  A    between atoms: _298  and  _299
REMARK  132  A    between atoms: _308  and  _310
REMARK  133  A    between atoms: _310  and  _311
REMARK  134  A    between atoms: _314  and  _316
REMARK  135  A    between atoms: _316  and  _317
REMARK  136  A    between atoms: _316  and  _319
REMARK  137  A    between atoms: _322  and  _324
REMARK  138  A    between atoms: _324  and  _325
REMARK  139  A    between atoms: _327  and  _329
REMARK  140  A    between atoms: _329  and  _330
REMARK  141  A    between atoms: _332  and  _334
REMARK  142  A    between atoms: _334  and  _335
REMARK  143  A    between atoms: _334  and  _337
REMARK  144  A    between atoms: _337  and  _338
REMARK  145  A    between atoms: _341  and  _343
REMARK  146  A    between atoms: _343  and  _344
REMARK  147  A    between atoms: _347  and  _349
REMARK  148  A    between atoms: _349  and  _350
REMARK  149  A    between atoms: _349  and  _352
REMARK  150  A    between atoms: _355  and  _357
REMARK  151  A    between atoms: _357  and  _358
REMARK  152  A    between atoms: _360  and  _362
REMARK  153  A    between atoms: _362  and  _363
REMARK  154  A    between atoms: _362  and  _365
REMARK  155  A    between atoms: _365  and  _366
REMARK  156  A    between atoms: _366  and  _367
REMARK  157  A    between atoms: _370  and  _372
REMARK  158  A    between atoms: _372  and  _373
REMARK  159  A    between atoms: _372  and  _375
REMARK  160  A    between atoms: _375  and  _376
REMARK  161  A    between atoms: _376  and  _377
REMARK  162  A    between atoms: _379  and  _381
REMARK  163  A    between atoms: _381  and  _382
REMARK  164  A    between atoms: _381  and  _384
REMARK  165  A    between atoms: _384  and  _385
REMARK  166  A    between atoms: _390  and  _391
REMARK  167  A    between atoms: _393  and  _395
REMARK  168  A    between atoms: _395  and  _396
REMARK  169  A    between atoms: _395  and  _398
REMARK  170  A    between atoms: _398  and  _399
REMARK  171  A    between atoms: _402  and  _404
REMARK  172  A    between atoms: _404  and  _405
REMARK  173  A    between atoms: _404  and  _407
REMARK  174  A    between atoms: _407  and  _408
REMARK  175  A    between atoms: _408  and  _409
REMARK  176  A    between atoms: _411  and  _413
REMARK  177  A    between atoms: _413  and  _414
REMARK  178  A    between atoms: _416  and  _418
REMARK  179  A    between atoms: _418  and  _419
REMARK  180  A    between atoms: _418  and  _421
REMARK  181  A    between atoms: _424  and  _426
REMARK  182  A    between atoms: _426  and  _427
REMARK  183  A    between atoms: _429  and  _431
REMARK  184  A    between atoms: _431  and  _432
REMARK  185  A    between atoms: _431  and  _434
REMARK  186  A    between atoms: _434  and  _435
REMARK  187  A    between atoms: _441  and  _443
REMARK  188  A    between atoms: _443  and  _444
REMARK  189  A    between atoms: _443  and  _446
REMARK  190  A    between atoms: _446  and  _447
REMARK  191  A    between atoms: _450  and  _452
REMARK  192  A    between atoms: _452  and  _453
REMARK  193  A    between atoms: _452  and  _455
REMARK  194  A    between atoms: _457  and  _459
REMARK  195  A    between atoms: _459  and  _460
REMARK  196  A    between atoms: _459  and  _462
REMARK  197  A    between atoms: _465  and  _467
REMARK  198  A    between atoms: _467  and  _468
REMARK  199  A    between atoms: _467  and  _470
REMARK  200  A    between atoms: _470  and  _471
REMARK  201  A    between atoms: _474  and  _476
REMARK  202  A    between atoms: _476  and  _477
REMARK  203  A    between atoms: _476  and  _479
REMARK  204  A    between atoms: _479  and  _480
REMARK  205  A    between atoms: _480  and  _481
REMARK  206  A    between atoms: _481  and  _482
REMARK                            x       y       z     vdW  Elec       q    Type
REMARK                         _______ _______ _______ _____ _____    ______ ____
ROOT
ATOM      1  CA  LEU A   5      24.110  17.825  19.254  0.00  0.00    +0.149 C 
ENDROOT
BRANCH   1   4
ATOM      2  C   GLY A   4      23.375  18.786  21.344  0.00  0.00    +0.243 C 
ATOM      3  O   GLY A   4      24.261  19.648  21.253  0.00  0.00    -0.273 OA
ATOM      4  N   LEU A   5      23.278  17.811  20.447  0.00  0.00    -0.297 N 
ATOM      5  H   LEU A   5      22.604  17.034  20.599  0.00  0.00    +0.150 HD
BRANCH   2   6
ATOM      6  CA  GLY A   4      22.385  18.822  22.481  0.00  0.00    +0.176 C 
BRANCH   6   9
ATOM      7  C   GLY A   3      22.276  16.505  23.221  0.00  0.00    +0.243 C 
ATOM      8  O   GLY A   3      23.491  16.399  23.371  0.00  0.00    -0.273 OA
ATOM      9  N   GLY A   4      21.684  17.588  22.744  0.00  0.00    -0.295 N 
ATOM     10  H   GLY A   4      20.663  17.548  22.549  0.00  0.00    +0.150 HD
BRANCH   7  11
ATOM     11  CA  GLY A   3      21.352  15.365  23.598  0.00  0.00    +0.176 C 
BRANCH  11  13
ATOM     12  C   VAL A   2      22.426  13.264  23.132  0.00  0.00    +0.241 C 
ATOM     13  N   GLY A   3      22.136  14.218  23.998  0.00  0.00    -0.295 N 
ATOM     14  H   GLY A   3      22.475  14.143  24.978  0.00  0.00    +0.150 HD
ATOM     15  O   VAL A   2      22.038  13.234  21.970  0.00  0.00    -0.273 OA
BRANCH  12  16
ATOM     16  CA  VAL A   2      23.254  12.117  23.694  0.00  0.00    +0.148 C 
BRANCH  16  19
ATOM     17  C   ALA A   1      21.758  10.680  24.907  0.00  0.00    +0.238 C 
ATOM     18  O   ALA A   1      22.068  11.228  25.964  0.00  0.00    -0.274 OA
ATOM     19  N   VAL A   2      22.331  10.998  23.757  0.00  0.00    -0.297 N 
ATOM     20  H   VAL A   2      22.120  10.447  22.900  0.00  0.00    +0.150 HD
BRANCH  17  21
ATOM     21  CA  ALA A   1      20.682   9.619  24.805  0.00  0.00    +0.145 C 
ATOM     22  CB  ALA A   1      19.336  10.276  24.524  0.00  0.00    +0.028 C 
BRANCH  21  23
ATOM     23  N   ALA A   1      20.575   8.847  26.030  0.00  0.00    -0.238 NA
ATOM     24  H   ALA A   1      20.044   9.235  26.835  0.00  0.00    +0.142 HD
ENDBRANCH  21  23
ENDBRANCH  17  21
ENDBRANCH  16  19
BRANCH  16  25
ATOM     25  CB  VAL A   2      24.491  11.866  22.839  0.00  0.00    +0.027 C 
ATOM     26  CG2 VAL A   2      25.228  10.620  23.336  0.00  0.00    +0.002 C 
ATOM     27  CG1 VAL A   2      25.417  13.074  22.841  0.00  0.00    +0.002 C 
ENDBRANCH  16  25
ENDBRANCH  12  16
ENDBRANCH  11  13
ENDBRANCH   7  11
ENDBRANCH   6   9
ENDBRANCH   2   6
ENDBRANCH   1   4
BRANCH   1  28
ATOM     28  C   LEU A   5      23.241  17.968  18.022  0.00  0.00    +0.241 C 
ATOM     29  O   LEU A   5      22.019  18.002  18.102  0.00  0.00    -0.273 OA
ATOM     30  N   ALA A   6      23.901  18.063  16.881  0.00  0.00    -0.297 N 
ATOM     31  H   ALA A   6      24.934  17.951  16.832  0.00  0.00    +0.150 HD
BRANCH  30  32
ATOM     32  CA  ALA A   6      23.098  18.333  15.696  0.00  0.00    +0.149 C 
ATOM     33  CB  ALA A   6      22.218  17.110  15.457  0.00  0.00    +0.031 C 
BRANCH  32  34
ATOM     34  C   ALA A   6      22.282  19.608  15.837  0.00  0.00    +0.241 C 
ATOM     35  N   VAL A   7      22.902  20.666  16.363  0.00  0.00    -0.297 N 
ATOM     36  H   VAL A   7      23.908  20.605  16.620  0.00  0.00    +0.150 HD
ATOM     37  O   ALA A   6      21.097  19.671  15.499  0.00  0.00    -0.273 OA
BRANCH  35  38
ATOM     38  CA  VAL A   7      22.166  21.911  16.578  0.00  0.00    +0.149 C 
BRANCH  38  39
ATOM     39  C   VAL A   7      22.906  23.124  16.021  0.00  0.00    +0.241 C 
ATOM     40  O   VAL A   7      22.645  24.237  16.473  0.00  0.00    -0.273 OA
ATOM     41  N   GLY A   8      23.785  22.822  15.097  0.00  0.00    -0.295 N 
ATOM     42  H   GLY A   8      23.914  21.807  14.911  0.00  0.00    +0.150 HD
BRANCH  41  43
ATOM     43  CA  GLY A   8      24.592  23.708  14.309  0.00  0.00    +0.176 C 
BRANCH  43  44
ATOM     44  C   GLY A   8      26.091  23.588  14.386  0.00  0.00    +0.243 C 
ATOM     45  N   GLU A   9      26.649  22.663  15.160  0.00  0.00    -0.298 N 
ATOM     46  H   GLU A   9      26.038  21.962  15.626  0.00  0.00    +0.150 HD
ATOM     47  O   GLY A   8      26.788  24.369  13.713  0.00  0.00    -0.273 OA
BRANCH  45  48
ATOM     48  CA  GLU A   9      28.091  22.598  15.377  0.00  0.00    +0.137 C 
BRANCH  48  49
ATOM     49  C   GLU A   9      28.863  21.957  14.239  0.00  0.00    +0.227 C 
ATOM     50  O   GLU A   9      30.087  22.106  14.138  0.00  0.00    -0.286 OA
ENDBRANCH  48  49
BRANCH  48  51
ATOM     51  CB  GLU A   9      28.380  21.821  16.659  0.00  0.00    +0.039 C 
BRANCH  51  52
ATOM     52  CG  GLU A   9      28.169  20.332  16.607  0.00  0.00    +0.116 C 
BRANCH  52  53
ATOM     53  CD  GLU A   9      26.745  19.850  16.683  0.00  0.00    +0.365 C 
ATOM     54  OE2 GLU A   9      25.791  20.644  16.803  0.00  0.00    -0.246 OA
ATOM     55  OE1 GLU A   9      26.552  18.616  16.624  0.00  0.00    -0.246 OA
ENDBRANCH  52  53
ENDBRANCH  51  52
ENDBRANCH  48  51
ENDBRANCH  45  48
ENDBRANCH  43  44
ENDBRANCH  41  43
ENDBRANCH  38  39
BRANCH  38  56
ATOM     56  CB  VAL A   7      21.984  22.156  18.082  0.00  0.00    +0.027 C 
ATOM     57  CG2 VAL A   7      23.348  22.051  18.736  0.00  0.00    +0.002 C 
ATOM     58  CG1 VAL A   7      20.980  21.162  18.640  0.00  0.00    +0.002 C 
ENDBRANCH  38  56
ENDBRANCH  35  38
ENDBRANCH  32  34
ENDBRANCH  30  32
ENDBRANCH   1  28
BRANCH   1  59
ATOM     59  CB  LEU A   5      25.012  16.600  19.158  0.00  0.00    +0.029 C 
BRANCH  59  60
ATOM     60  CG  LEU A   5      26.067  16.514  20.254  0.00  0.00    +0.002 C 
ATOM     61  CD2 LEU A   5      26.772  15.165  20.199  0.00  0.00    +0.000 C 
ATOM     62  CD1 LEU A   5      27.059  17.664  20.125  0.00  0.00    +0.000 C 
ENDBRANCH  59  60
ENDBRANCH   1  59
TORSDOF 25
REMARK  Name = ../refined-set-2016/3gc4/3gc4_pocket.pdb
REMARK  206 active torsions:
REMARK  status: ('A' for Active; 'I' for Inactive)
REMARK    1  A    between atoms: _1  and  _3
REMARK    2  A    between atoms: _3  and  _4
REMARK    3  A    between atoms: _3  and  _6
REMARK    4  A    between atoms: _6  and  _7
REMARK    5  A    between atoms: _7  and  _8
REMARK    6  A    between atoms: _10  and  _12
REMARK    7  A    between atoms: _12  and  _13
REMARK    8  A    between atoms: _12  and  _15
REMARK    9  A    between atoms: _18  and  _20
REMARK   10  A    between atoms: _20  and  _21
REMARK   11  A    between atoms: _23  and  _25
REMARK   12  A    between atoms: _25  and  _26
REMARK   13  A    between atoms: _25  and  _28
REMARK   14  A    between atoms: _28  and  _29
REMARK   15  A    between atoms: _32  and  _34
REMARK   16  A    between atoms: _34  and  _35
REMARK   17  A    between atoms: _34  and  _37
REMARK   18  A    between atoms: _37  and  _38
REMARK   19  A    between atoms: _38  and  _39
REMARK   20  A    between atoms: _39  and  _40
REMARK   21  A    between atoms: _40  and  _41
REMARK   22  A    between atoms: _45  and  _47
REMARK   23  A    between atoms: _47  and  _48
REMARK   24  A    between atoms: _47  and  _50
REMARK   25  A    between atoms: _50  and  _51
REMARK   26  A    between atoms: _54  and  _56
REMARK   27  A    between atoms: _56  and  _57
REMARK   28  A    between atoms: _59  and  _61
REMARK   29  A    between atoms: _61  and  _62
REMARK   30  A    between atoms: _61  and  _64
REMARK   31  A    between atoms: _64  and  _65
REMARK   32  A    between atoms: _70  and  _72
REMARK   33  A    between atoms: _72  and  _73
REMARK   34  A    between atoms: _72  and  _75
REMARK   35  A    between atoms: _75  and  _76
REMARK   36  A    between atoms: _79  and  _81
REMARK   37  A    between atoms: _81  and  _82
REMARK   38  A    between atoms: _81  and  _84
REMARK   39  A    between atoms: _84  and  _85
REMARK   40  A    between atoms: _90  and  _91
REMARK   41  A    between atoms: _93  and  _95
REMARK   42  A    between atoms: _95  and  _96
REMARK   43  A    between atoms: _95  and  _98
REMARK   44  A    between atoms: _98  and  _99
REMARK   45  A    between atoms: _104  and  _106
REMARK   46  A    between atoms: _106  and  _107
REMARK   47  A    between atoms: _106  and  _109
REMARK   48  A    between atoms: _109  and  _110
REMARK   49  A    between atoms: _113  and  _115
REMARK   50  A    between atoms: _115  and  _116
REMARK   51  A    between atoms: _115  and  _118
REMARK   52  A    between atoms: _118  and  _119
REMARK   53  A    between atoms: _122  and  _124
REMARK   54  A    between atoms: _124  and  _125
REMARK   55  A    between atoms: _124  and  _127
REMARK   56  A    between atoms: _127  and  _128
REMARK   57  A    between atoms: _131  and  _133
REMARK   58  A    between atoms: _133  and  _134
REMARK   59  A    between atoms: _133  and  _136
REMARK   60  A    between atoms: _136  and  _137
REMARK   61  A    between atoms: _139  and  _141
REMARK   62  A    between atoms: _141  and  _142
REMARK   63  A    between atoms: _144  and  _146
REMARK   64  A    between atoms: _146  and  _147
REMARK   65  A    between atoms: _149  and  _151
REMARK   66  A    between atoms: _151  and  _152
REMARK   67  A    between atoms: _151  and  _154
REMARK   68  A    between atoms: _154  and  _155
REMARK   69  A    between atoms: _160  and  _161
REMARK   70  A    between atoms: _163  and  _165
REMARK   71  A    between atoms: _165  and  _166
REMARK   72  A    between atoms: _165  and  _168
REMARK   73  A    between atoms: _168  and  _169
REMARK   74  A    between atoms: _169  and  _170
REMARK   75  A    between atoms: _175  and  _177
REMARK   76  A    between atoms: _177  and  _178
REMARK   77  A    between atoms: _177  and  _180
REMARK   78  A    between atoms: _180  and  _181
REMARK   79  A    between atoms: _181  and  _182
REMARK   80  A    between atoms: _184  and  _186
REMARK   81  A    between atoms: _186  and  _187
REMARK   82  A    between atoms: _190  and  _192
REMARK   83  A    between atoms: _192  and  _193
REMARK   84  A    between atoms: _192  and  _195
REMARK   85  A    between atoms: _195  and  _196
REMARK   86  A    between atoms: _202  and  _204
REMARK   87  A    between atoms: _204  and  _205
REMARK   88  A    between atoms: _204  and  _207
REMARK   89  A    between atoms: _207  and  _208
REMARK   90  A    between atoms: _211  and  _213
REMARK   91  A    between atoms: _213  and  _214
REMARK   92  A    between atoms: _213  and  _216
REMARK   93  A    between atoms: _216  and  _217
REMARK   94  A    between atoms: _217  and  _218
REMARK   95  A    between atoms: _221  and  _223
REMARK   96  A    between atoms: _223  and  _224
REMARK   97  A    between atoms: _223  and  _226
REMARK   98  A    between atoms: _228  and  _230
REMARK   99  A    between atoms: _230  and  _231
REMARK  100  A    between atoms: _230  and  _233
REMARK  101  A    between atoms: _233  and  _234
REMARK  102  A    between atoms: _237  and  _239
REMARK  103  A    between atoms: _239  and  _240
REMARK  104  A    between atoms: _239  and  _242
REMARK  105  A    between atoms: _242  and  _243
REMARK  106  A    between atoms: _245  and  _247
REMARK  107  A    between atoms: _247  and  _248
REMARK  108  A    between atoms: _247  and  _250
REMARK  109  A    between atoms: _250  and  _251
REMARK  110  A    between atoms: _254  and  _256
REMARK  111  A    between atoms: _256  and  _257
REMARK  112  A    between atoms: _256  and  _259
REMARK  113  A    between atoms: _259  and  _260
REMARK  114  A    between atoms: _260  and  _261
REMARK  115  A    between atoms: _266  and  _268
REMARK  116  A    between atoms: _268  and  _269
REMARK  117  A    between atoms: _268  and  _271
REMARK  118  A    between atoms: _271  and  _272
REMARK  119  A    between atoms: _272  and  _273
REMARK  120  A    between atoms: _278  and  _280
REMARK  121  A    between atoms: _280  and  _281
REMARK  122  A    between atoms: _283  and  _285
REMARK  123  A    between atoms: _285  and  _286
REMARK  124  A    between atoms: _285  and  _288
REMARK  125  A    between atoms: _288  and  _289
REMARK  126  A    between atoms: _291  and  _293
REMARK  127  A    between atoms: _293  and  _294
REMARK  128  A    between atoms: _293  and  _296
REMARK  129  A    between atoms: _296  and  _297
REMARK  130  A    between atoms: _297  and  _298
REMARK  131  A    between atoms: _298  and  _299
REMARK  132  A    between atoms: _308  and  _310
REMARK  133  A    between atoms: _310  and  _311
REMARK  134  A    between atoms: _314  and  _316
REMARK  135  A    between atoms: _316  and  _317
REMARK  136  A    between atoms: _316  and  _319
REMARK  137  A    between atoms: _322  and  _324
REMARK  138  A    between atoms: _324  and  _325
REMARK  139  A    between atoms: _327  and  _329
REMARK  140  A    between atoms: _329  and  _330
REMARK  141  A    between atoms: _332  and  _334
REMARK  142  A    between atoms: _334  and  _335
REMARK  143  A    between atoms: _334  and  _337
REMARK  144  A    between atoms: _337  and  _338
REMARK  145  A    between atoms: _341  and  _343
REMARK  146  A    between atoms: _343  and  _344
REMARK  147  A    between atoms: _347  and  _349
REMARK  148  A    between atoms: _349  and  _350
REMARK  149  A    between atoms: _349  and  _352
REMARK  150  A    between atoms: _355  and  _357
REMARK  151  A    between atoms: _357  and  _358
REMARK  152  A    between atoms: _360  and  _362
REMARK  153  A    between atoms: _362  and  _363
REMARK  154  A    between atoms: _362  and  _365
REMARK  155  A    between atoms: _365  and  _366
REMARK  156  A    between atoms: _366  and  _367
REMARK  157  A    between atoms: _370  and  _372
REMARK  158  A    between atoms: _372  and  _373
REMARK  159  A    between atoms: _372  and  _375
REMARK  160  A    between atoms: _375  and  _376
REMARK  161  A    between atoms: _376  and  _377
REMARK  162  A    between atoms: _379  and  _381
REMARK  163  A    between atoms: _381  and  _382
REMARK  164  A    between atoms: _381  and  _384
REMARK  165  A    between atoms: _384  and  _385
REMARK  166  A    between atoms: _390  and  _391
REMARK  167  A    between atoms: _393  and  _395
REMARK  168  A    between atoms: _395  and  _396
REMARK  169  A    between atoms: _395  and  _398
REMARK  170  A    between atoms: _398  and  _399
REMARK  171  A    between atoms: _402  and  _404
REMARK  172  A    between atoms: _404  and  _405
REMARK  173  A    between atoms: _404  and  _407
REMARK  174  A    between atoms: _407  and  _408
REMARK  175  A    between atoms: _408  and  _409
REMARK  176  A    between atoms: _411  and  _413
REMARK  177  A    between atoms: _413  and  _414
REMARK  178  A    between atoms: _416  and  _418
REMARK  179  A    between atoms: _418  and  _419
REMARK  180  A    between atoms: _418  and  _421
REMARK  181  A    between atoms: _424  and  _426
REMARK  182  A    between atoms: _426  and  _427
REMARK  183  A    between atoms: _429  and  _431
REMARK  184  A    between atoms: _431  and  _432
REMARK  185  A    between atoms: _431  and  _434
REMARK  186  A    between atoms: _434  and  _435
REMARK  187  A    between atoms: _441  and  _443
REMARK  188  A    between atoms: _443  and  _444
REMARK  189  A    between atoms: _443  and  _446
REMARK  190  A    between atoms: _446  and  _447
REMARK  191  A    between atoms: _450  and  _452
REMARK  192  A    between atoms: _452  and  _453
REMARK  193  A    between atoms: _452  and  _455
REMARK  194  A    between atoms: _457  and  _459
REMARK  195  A    between atoms: _459  and  _460
REMARK  196  A    between atoms: _459  and  _462
REMARK  197  A    between atoms: _465  and  _467
REMARK  198  A    between atoms: _467  and  _468
REMARK  199  A    between atoms: _467  and  _470
REMARK  200  A    between atoms: _470  and  _471
REMARK  201  A    between atoms: _474  and  _476
REMARK  202  A    between atoms: _476  and  _477
REMARK  203  A    between atoms: _476  and  _479
REMARK  204  A    between atoms: _479  and  _480
REMARK  205  A    between atoms: _480  and  _481
REMARK  206  A    between atoms: _481  and  _482
REMARK                            x       y       z     vdW  Elec       q    Type
REMARK                         _______ _______ _______ _____ _____    ______ ____
ROOT
ATOM      1  CA  MET A   1      29.810  16.533  16.613  0.00  0.00    +0.134 C 
ENDROOT
BRANCH   1   2
ATOM      2  N   MET A   1      30.713  17.520  16.036  0.00  0.00    -0.239 NA
ATOM      3  H   MET A   1      30.539  17.923  15.093  0.00  0.00    +0.142 HD
ENDBRANCH   1   2
BRANCH   1   4
ATOM      4  C   MET A   1      30.551  15.239  16.888  0.00  0.00    +0.224 C 
ATOM      5  O   MET A   1      30.438  14.624  17.947  0.00  0.00    -0.287 OA
ENDBRANCH   1   4
BRANCH   1   6
ATOM      6  CB  MET A   1      28.628  16.279  15.675  0.00  0.00    +0.037 C 
BRANCH   6   7
ATOM      7  CG  MET A   1      27.630  15.291  16.273  0.00  0.00    +0.059 C 
BRANCH   7   8
ATOM      8  SD  MET A   1      26.227  14.941  15.203  0.00  0.00    -0.139 S 
ATOM      9  CE  MET A   1      26.915  13.759  14.058  0.00  0.00    +0.069 C 
ENDBRANCH   7   8
ENDBRANCH   6   7
ENDBRANCH   1   6
TORSDOF 5
REMARK  Name = ../refined-set-2016/3gc4/3gc4_pocket.pdb
REMARK  206 active torsions:
REMARK  status: ('A' for Active; 'I' for Inactive)
REMARK    1  A    between atoms: _1  and  _3
REMARK    2  A    between atoms: _3  and  _4
REMARK    3  A    between atoms: _3  and  _6
REMARK    4  A    between atoms: _6  and  _7
REMARK    5  A    between atoms: _7  and  _8
REMARK    6  A    between atoms: _10  and  _12
REMARK    7  A    between atoms: _12  and  _13
REMARK    8  A    between atoms: _12  and  _15
REMARK    9  A    between atoms: _18  and  _20
REMARK   10  A    between atoms: _20  and  _21
REMARK   11  A    between atoms: _23  and  _25
REMARK   12  A    between atoms: _25  and  _26
REMARK   13  A    between atoms: _25  and  _28
REMARK   14  A    between atoms: _28  and  _29
REMARK   15  A    between atoms: _32  and  _34
REMARK   16  A    between atoms: _34  and  _35
REMARK   17  A    between atoms: _34  and  _37
REMARK   18  A    between atoms: _37  and  _38
REMARK   19  A    between atoms: _38  and  _39
REMARK   20  A    between atoms: _39  and  _40
REMARK   21  A    between atoms: _40  and  _41
REMARK   22  A    between atoms: _45  and  _47
REMARK   23  A    between atoms: _47  and  _48
REMARK   24  A    between atoms: _47  and  _50
REMARK   25  A    between atoms: _50  and  _51
REMARK   26  A    between atoms: _54  and  _56
REMARK   27  A    between atoms: _56  and  _57
REMARK   28  A    between atoms: _59  and  _61
REMARK   29  A    between atoms: _61  and  _62
REMARK   30  A    between atoms: _61  and  _64
REMARK   31  A    between atoms: _64  and  _65
REMARK   32  A    between atoms: _70  and  _72
REMARK   33  A    between atoms: _72  and  _73
REMARK   34  A    between atoms: _72  and  _75
REMARK   35  A    between atoms: _75  and  _76
REMARK   36  A    between atoms: _79  and  _81
REMARK   37  A    between atoms: _81  and  _82
REMARK   38  A    between atoms: _81  and  _84
REMARK   39  A    between atoms: _84  and  _85
REMARK   40  A    between atoms: _90  and  _91
REMARK   41  A    between atoms: _93  and  _95
REMARK   42  A    between atoms: _95  and  _96
REMARK   43  A    between atoms: _95  and  _98
REMARK   44  A    between atoms: _98  and  _99
REMARK   45  A    between atoms: _104  and  _106
REMARK   46  A    between atoms: _106  and  _107
REMARK   47  A    between atoms: _106  and  _109
REMARK   48  A    between atoms: _109  and  _110
REMARK   49  A    between atoms: _113  and  _115
REMARK   50  A    between atoms: _115  and  _116
REMARK   51  A    between atoms: _115  and  _118
REMARK   52  A    between atoms: _118  and  _119
REMARK   53  A    between atoms: _122  and  _124
REMARK   54  A    between atoms: _124  and  _125
REMARK   55  A    between atoms: _124  and  _127
REMARK   56  A    between atoms: _127  and  _128
REMARK   57  A    between atoms: _131  and  _133
REMARK   58  A    between atoms: _133  and  _134
REMARK   59  A    between atoms: _133  and  _136
REMARK   60  A    between atoms: _136  and  _137
REMARK   61  A    between atoms: _139  and  _141
REMARK   62  A    between atoms: _141  and  _142
REMARK   63  A    between atoms: _144  and  _146
REMARK   64  A    between atoms: _146  and  _147
REMARK   65  A    between atoms: _149  and  _151
REMARK   66  A    between atoms: _151  and  _152
REMARK   67  A    between atoms: _151  and  _154
REMARK   68  A    between atoms: _154  and  _155
REMARK   69  A    between atoms: _160  and  _161
REMARK   70  A    between atoms: _163  and  _165
REMARK   71  A    between atoms: _165  and  _166
REMARK   72  A    between atoms: _165  and  _168
REMARK   73  A    between atoms: _168  and  _169
REMARK   74  A    between atoms: _169  and  _170
REMARK   75  A    between atoms: _175  and  _177
REMARK   76  A    between atoms: _177  and  _178
REMARK   77  A    between atoms: _177  and  _180
REMARK   78  A    between atoms: _180  and  _181
REMARK   79  A    between atoms: _181  and  _182
REMARK   80  A    between atoms: _184  and  _186
REMARK   81  A    between atoms: _186  and  _187
REMARK   82  A    between atoms: _190  and  _192
REMARK   83  A    between atoms: _192  and  _193
REMARK   84  A    between atoms: _192  and  _195
REMARK   85  A    between atoms: _195  and  _196
REMARK   86  A    between atoms: _202  and  _204
REMARK   87  A    between atoms: _204  and  _205
REMARK   88  A    between atoms: _204  and  _207
REMARK   89  A    between atoms: _207  and  _208
REMARK   90  A    between atoms: _211  and  _213
REMARK   91  A    between atoms: _213  and  _214
REMARK   92  A    between atoms: _213  and  _216
REMARK   93  A    between atoms: _216  and  _217
REMARK   94  A    between atoms: _217  and  _218
REMARK   95  A    between atoms: _221  and  _223
REMARK   96  A    between atoms: _223  and  _224
REMARK   97  A    between atoms: _223  and  _226
REMARK   98  A    between atoms: _228  and  _230
REMARK   99  A    between atoms: _230  and  _231
REMARK  100  A    between atoms: _230  and  _233
REMARK  101  A    between atoms: _233  and  _234
REMARK  102  A    between atoms: _237  and  _239
REMARK  103  A    between atoms: _239  and  _240
REMARK  104  A    between atoms: _239  and  _242
REMARK  105  A    between atoms: _242  and  _243
REMARK  106  A    between atoms: _245  and  _247
REMARK  107  A    between atoms: _247  and  _248
REMARK  108  A    between atoms: _247  and  _250
REMARK  109  A    between atoms: _250  and  _251
REMARK  110  A    between atoms: _254  and  _256
REMARK  111  A    between atoms: _256  and  _257
REMARK  112  A    between atoms: _256  and  _259
REMARK  113  A    between atoms: _259  and  _260
REMARK  114  A    between atoms: _260  and  _261
REMARK  115  A    between atoms: _266  and  _268
REMARK  116  A    between atoms: _268  and  _269
REMARK  117  A    between atoms: _268  and  _271
REMARK  118  A    between atoms: _271  and  _272
REMARK  119  A    between atoms: _272  and  _273
REMARK  120  A    between atoms: _278  and  _280
REMARK  121  A    between atoms: _280  and  _281
REMARK  122  A    between atoms: _283  and  _285
REMARK  123  A    between atoms: _285  and  _286
REMARK  124  A    between atoms: _285  and  _288
REMARK  125  A    between atoms: _288  and  _289
REMARK  126  A    between atoms: _291  and  _293
REMARK  127  A    between atoms: _293  and  _294
REMARK  128  A    between atoms: _293  and  _296
REMARK  129  A    between atoms: _296  and  _297
REMARK  130  A    between atoms: _297  and  _298
REMARK  131  A    between atoms: _298  and  _299
REMARK  132  A    between atoms: _308  and  _310
REMARK  133  A    between atoms: _310  and  _311
REMARK  134  A    between atoms: _314  and  _316
REMARK  135  A    between atoms: _316  and  _317
REMARK  136  A    between atoms: _316  and  _319
REMARK  137  A    between atoms: _322  and  _324
REMARK  138  A    between atoms: _324  and  _325
REMARK  139  A    between atoms: _327  and  _329
REMARK  140  A    between atoms: _329  and  _330
REMARK  141  A    between atoms: _332  and  _334
REMARK  142  A    between atoms: _334  and  _335
REMARK  143  A    between atoms: _334  and  _337
REMARK  144  A    between atoms: _337  and  _338
REMARK  145  A    between atoms: _341  and  _343
REMARK  146  A    between atoms: _343  and  _344
REMARK  147  A    between atoms: _347  and  _349
REMARK  148  A    between atoms: _349  and  _350
REMARK  149  A    between atoms: _349  and  _352
REMARK  150  A    between atoms: _355  and  _357
REMARK  151  A    between atoms: _357  and  _358
REMARK  152  A    between atoms: _360  and  _362
REMARK  153  A    between atoms: _362  and  _363
REMARK  154  A    between atoms: _362  and  _365
REMARK  155  A    between atoms: _365  and  _366
REMARK  156  A    between atoms: _366  and  _367
REMARK  157  A    between atoms: _370  and  _372
REMARK  158  A    between atoms: _372  and  _373
REMARK  159  A    between atoms: _372  and  _375
REMARK  160  A    between atoms: _375  and  _376
REMARK  161  A    between atoms: _376  and  _377
REMARK  162  A    between atoms: _379  and  _381
REMARK  163  A    between atoms: _381  and  _382
REMARK  164  A    between atoms: _381  and  _384
REMARK  165  A    between atoms: _384  and  _385
REMARK  166  A    between atoms: _390  and  _391
REMARK  167  A    between atoms: _393  and  _395
REMARK  168  A    between atoms: _395  and  _396
REMARK  169  A    between atoms: _395  and  _398
REMARK  170  A    between atoms: _398  and  _399
REMARK  171  A    between atoms: _402  and  _404
REMARK  172  A    between atoms: _404  and  _405
REMARK  173  A    between atoms: _404  and  _407
REMARK  174  A    between atoms: _407  and  _408
REMARK  175  A    between atoms: _408  and  _409
REMARK  176  A    between atoms: _411  and  _413
REMARK  177  A    between atoms: _413  and  _414
REMARK  178  A    between atoms: _416  and  _418
REMARK  179  A    between atoms: _418  and  _419
REMARK  180  A    between atoms: _418  and  _421
REMARK  181  A    between atoms: _424  and  _426
REMARK  182  A    between atoms: _426  and  _427
REMARK  183  A    between atoms: _429  and  _431
REMARK  184  A    between atoms: _431  and  _432
REMARK  185  A    between atoms: _431  and  _434
REMARK  186  A    between atoms: _434  and  _435
REMARK  187  A    between atoms: _441  and  _443
REMARK  188  A    between atoms: _443  and  _444
REMARK  189  A    between atoms: _443  and  _446
REMARK  190  A    between atoms: _446  and  _447
REMARK  191  A    between atoms: _450  and  _452
REMARK  192  A    between atoms: _452  and  _453
REMARK  193  A    between atoms: _452  and  _455
REMARK  194  A    between atoms: _457  and  _459
REMARK  195  A    between atoms: _459  and  _460
REMARK  196  A    between atoms: _459  and  _462
REMARK  197  A    between atoms: _465  and  _467
REMARK  198  A    between atoms: _467  and  _468
REMARK  199  A    between atoms: _467  and  _470
REMARK  200  A    between atoms: _470  and  _471
REMARK  201  A    between atoms: _474  and  _476
REMARK  202  A    between atoms: _476  and  _477
REMARK  203  A    between atoms: _476  and  _479
REMARK  204  A    between atoms: _479  and  _480
REMARK  205  A    between atoms: _480  and  _481
REMARK  206  A    between atoms: _481  and  _482
REMARK                            x       y       z     vdW  Elec       q    Type
REMARK                         _______ _______ _______ _____ _____    ______ ____
ROOT
ATOM      1  C   LEU A   2      20.626  10.817  18.672  0.00  0.00    +0.241 C 
ATOM      2  N   MET A   3      20.178  11.829  19.421  0.00  0.00    -0.297 N 
ATOM      3  H   MET A   3      20.714  12.146  20.254  0.00  0.00    +0.150 HD
ATOM      4  O   LEU A   2      20.088  10.540  17.603  0.00  0.00    -0.273 OA
ENDROOT
BRANCH   2   5
ATOM      5  CA  MET A   3      18.928  12.482  19.055  0.00  0.00    +0.149 C 
BRANCH   5   6
ATOM      6  C   MET A   3      19.062  13.397  17.848  0.00  0.00    +0.241 C 
ATOM      7  O   MET A   3      19.914  14.293  17.823  0.00  0.00    -0.273 OA
ATOM      8  N   GLY A   4      18.226  13.197  16.846  0.00  0.00    -0.295 N 
ATOM      9  H   GLY A   4      17.610  12.359  16.840  0.00  0.00    +0.150 HD
BRANCH   8  10
ATOM     10  CA  GLY A   4      18.169  14.151  15.753  0.00  0.00    +0.176 C 
BRANCH  10  11
ATOM     11  C   GLY A   4      19.148  13.917  14.630  0.00  0.00    +0.243 C 
ATOM     12  N   VAL A   5      19.883  12.822  14.698  0.00  0.00    -0.297 N 
ATOM     13  H   VAL A   5      19.746  12.170  15.497  0.00  0.00    +0.150 HD
ATOM     14  O   GLY A   4      19.242  14.735  13.722  0.00  0.00    -0.273 OA
BRANCH  12  15
ATOM     15  CA  VAL A   5      20.882  12.502  13.683  0.00  0.00    +0.149 C 
BRANCH  15  16
ATOM     16  C   VAL A   5      20.414  11.333  12.824  0.00  0.00    +0.241 C 
ATOM     17  O   VAL A   5      19.889  10.366  13.392  0.00  0.00    -0.273 OA
ATOM     18  N   GLY A   6      20.558  11.399  11.529  0.00  0.00    -0.296 N 
ATOM     19  H   GLY A   6      20.225  10.571  10.995  0.00  0.00    +0.150 HD
BRANCH  18  20
ATOM     20  CA  GLY A   6      21.115  12.462  10.746  0.00  0.00    +0.163 C 
BRANCH  20  21
ATOM     21  C   GLY A   6      21.291  12.015   9.306  0.00  0.00    +0.229 C 
ATOM     22  O   GLY A   6      20.623  11.089   8.868  0.00  0.00    -0.286 OA
ENDBRANCH  20  21
ENDBRANCH  18  20
ENDBRANCH  15  16
BRANCH  15  23
ATOM     23  CB  VAL A   5      22.226  12.206  14.354  0.00  0.00    +0.027 C 
ATOM     24  CG2 VAL A   5      22.681  13.441  15.134  0.00  0.00    +0.002 C 
ATOM     25  CG1 VAL A   5      23.255  11.829  13.306  0.00  0.00    +0.002 C 
ENDBRANCH  15  23
ENDBRANCH  12  15
ENDBRANCH  10  11
ENDBRANCH   8  10
ENDBRANCH   5   6
BRANCH   5  26
ATOM     26  CB  MET A   3      18.402  13.284  20.253  0.00  0.00    +0.041 C 
BRANCH  26  27
ATOM     27  CG  MET A   3      18.338  12.484  21.531  0.00  0.00    +0.060 C 
BRANCH  27  28
ATOM     28  SD  MET A   3      17.347  13.226  22.826  0.00  0.00    -0.139 S 
ATOM     29  CE  MET A   3      15.687  13.024  22.188  0.00  0.00    +0.069 C 
ENDBRANCH  27  28
ENDBRANCH  26  27
ENDBRANCH   5  26
ENDBRANCH   2   5
BRANCH   1  30
ATOM     30  CA  LEU A   2      21.828  10.112  19.275  0.00  0.00    +0.149 C 
BRANCH  30  33
ATOM     31  C   TYR A   1      21.176   8.570  21.019  0.00  0.00    +0.239 C 
ATOM     32  O   TYR A   1      21.161   9.455  21.857  0.00  0.00    -0.274 OA
ATOM     33  N   LEU A   2      21.524   8.767  19.748  0.00  0.00    -0.297 N 
ATOM     34  H   LEU A   2      21.579   7.961  19.093  0.00  0.00    +0.150 HD
BRANCH  31  35
ATOM     35  CA  TYR A   1      20.691   7.168  21.359  0.00  0.00    +0.149 C 
BRANCH  35  36
ATOM     36  N   TYR A   1      21.561   6.570  22.368  0.00  0.00    -0.238 NA
ATOM     37  H   TYR A   1      21.565   6.983  23.322  0.00  0.00    +0.142 HD
ENDBRANCH  35  36
BRANCH  35  38
ATOM     38  CB  TYR A   1      19.255   7.129  21.862  0.00  0.00    +0.053 C 
BRANCH  38  39
ATOM     39  CG  TYR A   1      18.176   7.966  21.245  0.00  0.00    -0.020 A 
ATOM     40  CD2 TYR A   1      17.130   8.438  22.041  0.00  0.00    -0.001 A 
ATOM     41  CE2 TYR A   1      16.129   9.213  21.496  0.00  0.00    +0.036 A 
ATOM     42  CZ  TYR A   1      16.116   9.530  20.169  0.00  0.00    +0.134 A 
ATOM     43  CE1 TYR A   1      17.142   9.080  19.340  0.00  0.00    +0.036 A 
ATOM     44  CD1 TYR A   1      18.118   8.315  19.909  0.00  0.00    -0.001 A 
BRANCH  42  45
ATOM     45  OH  TYR A   1      15.140  10.299  19.601  0.00  0.00    -0.506 OA
ATOM     46  HH  TYR A   1      15.325  10.403  18.634  0.00  0.00    +0.292 HD
ENDBRANCH  42  45
ENDBRANCH  38  39
ENDBRANCH  35  38
ENDBRANCH  31  35
ENDBRANCH  30  33
BRANCH  30  47
ATOM     47  CB  LEU A   2      22.980  10.021  18.270  0.00  0.00    +0.029 C 
BRANCH  47  48
ATOM     48  CG  LEU A   2      23.524  11.338  17.739  0.00  0.00    +0.002 C 
ATOM     49  CD2 LEU A   2      23.918  12.280  18.860  0.00  0.00    +0.000 C 
ATOM     50  CD1 LEU A   2      24.728  11.079  16.826  0.00  0.00    +0.000 C 
ENDBRANCH  47  48
ENDBRANCH  30  47
ENDBRANCH   1  30
TORSDOF 21
REMARK  Name = ../refined-set-2016/3gc4/3gc4_pocket.pdb
REMARK  206 active torsions:
REMARK  status: ('A' for Active; 'I' for Inactive)
REMARK    1  A    between atoms: _1  and  _3
REMARK    2  A    between atoms: _3  and  _4
REMARK    3  A    between atoms: _3  and  _6
REMARK    4  A    between atoms: _6  and  _7
REMARK    5  A    between atoms: _7  and  _8
REMARK    6  A    between atoms: _10  and  _12
REMARK    7  A    between atoms: _12  and  _13
REMARK    8  A    between atoms: _12  and  _15
REMARK    9  A    between atoms: _18  and  _20
REMARK   10  A    between atoms: _20  and  _21
REMARK   11  A    between atoms: _23  and  _25
REMARK   12  A    between atoms: _25  and  _26
REMARK   13  A    between atoms: _25  and  _28
REMARK   14  A    between atoms: _28  and  _29
REMARK   15  A    between atoms: _32  and  _34
REMARK   16  A    between atoms: _34  and  _35
REMARK   17  A    between atoms: _34  and  _37
REMARK   18  A    between atoms: _37  and  _38
REMARK   19  A    between atoms: _38  and  _39
REMARK   20  A    between atoms: _39  and  _40
REMARK   21  A    between atoms: _40  and  _41
REMARK   22  A    between atoms: _45  and  _47
REMARK   23  A    between atoms: _47  and  _48
REMARK   24  A    between atoms: _47  and  _50
REMARK   25  A    between atoms: _50  and  _51
REMARK   26  A    between atoms: _54  and  _56
REMARK   27  A    between atoms: _56  and  _57
REMARK   28  A    between atoms: _59  and  _61
REMARK   29  A    between atoms: _61  and  _62
REMARK   30  A    between atoms: _61  and  _64
REMARK   31  A    between atoms: _64  and  _65
REMARK   32  A    between atoms: _70  and  _72
REMARK   33  A    between atoms: _72  and  _73
REMARK   34  A    between atoms: _72  and  _75
REMARK   35  A    between atoms: _75  and  _76
REMARK   36  A    between atoms: _79  and  _81
REMARK   37  A    between atoms: _81  and  _82
REMARK   38  A    between atoms: _81  and  _84
REMARK   39  A    between atoms: _84  and  _85
REMARK   40  A    between atoms: _90  and  _91
REMARK   41  A    between atoms: _93  and  _95
REMARK   42  A    between atoms: _95  and  _96
REMARK   43  A    between atoms: _95  and  _98
REMARK   44  A    between atoms: _98  and  _99
REMARK   45  A    between atoms: _104  and  _106
REMARK   46  A    between atoms: _106  and  _107
REMARK   47  A    between atoms: _106  and  _109
REMARK   48  A    between atoms: _109  and  _110
REMARK   49  A    between atoms: _113  and  _115
REMARK   50  A    between atoms: _115  and  _116
REMARK   51  A    between atoms: _115  and  _118
REMARK   52  A    between atoms: _118  and  _119
REMARK   53  A    between atoms: _122  and  _124
REMARK   54  A    between atoms: _124  and  _125
REMARK   55  A    between atoms: _124  and  _127
REMARK   56  A    between atoms: _127  and  _128
REMARK   57  A    between atoms: _131  and  _133
REMARK   58  A    between atoms: _133  and  _134
REMARK   59  A    between atoms: _133  and  _136
REMARK   60  A    between atoms: _136  and  _137
REMARK   61  A    between atoms: _139  and  _141
REMARK   62  A    between atoms: _141  and  _142
REMARK   63  A    between atoms: _144  and  _146
REMARK   64  A    between atoms: _146  and  _147
REMARK   65  A    between atoms: _149  and  _151
REMARK   66  A    between atoms: _151  and  _152
REMARK   67  A    between atoms: _151  and  _154
REMARK   68  A    between atoms: _154  and  _155
REMARK   69  A    between atoms: _160  and  _161
REMARK   70  A    between atoms: _163  and  _165
REMARK   71  A    between atoms: _165  and  _166
REMARK   72  A    between atoms: _165  and  _168
REMARK   73  A    between atoms: _168  and  _169
REMARK   74  A    between atoms: _169  and  _170
REMARK   75  A    between atoms: _175  and  _177
REMARK   76  A    between atoms: _177  and  _178
REMARK   77  A    between atoms: _177  and  _180
REMARK   78  A    between atoms: _180  and  _181
REMARK   79  A    between atoms: _181  and  _182
REMARK   80  A    between atoms: _184  and  _186
REMARK   81  A    between atoms: _186  and  _187
REMARK   82  A    between atoms: _190  and  _192
REMARK   83  A    between atoms: _192  and  _193
REMARK   84  A    between atoms: _192  and  _195
REMARK   85  A    between atoms: _195  and  _196
REMARK   86  A    between atoms: _202  and  _204
REMARK   87  A    between atoms: _204  and  _205
REMARK   88  A    between atoms: _204  and  _207
REMARK   89  A    between atoms: _207  and  _208
REMARK   90  A    between atoms: _211  and  _213
REMARK   91  A    between atoms: _213  and  _214
REMARK   92  A    between atoms: _213  and  _216
REMARK   93  A    between atoms: _216  and  _217
REMARK   94  A    between atoms: _217  and  _218
REMARK   95  A    between atoms: _221  and  _223
REMARK   96  A    between atoms: _223  and  _224
REMARK   97  A    between atoms: _223  and  _226
REMARK   98  A    between atoms: _228  and  _230
REMARK   99  A    between atoms: _230  and  _231
REMARK  100  A    between atoms: _230  and  _233
REMARK  101  A    between atoms: _233  and  _234
REMARK  102  A    between atoms: _237  and  _239
REMARK  103  A    between atoms: _239  and  _240
REMARK  104  A    between atoms: _239  and  _242
REMARK  105  A    between atoms: _242  and  _243
REMARK  106  A    between atoms: _245  and  _247
REMARK  107  A    between atoms: _247  and  _248
REMARK  108  A    between atoms: _247  and  _250
REMARK  109  A    between atoms: _250  and  _251
REMARK  110  A    between atoms: _254  and  _256
REMARK  111  A    between atoms: _256  and  _257
REMARK  112  A    between atoms: _256  and  _259
REMARK  113  A    between atoms: _259  and  _260
REMARK  114  A    between atoms: _260  and  _261
REMARK  115  A    between atoms: _266  and  _268
REMARK  116  A    between atoms: _268  and  _269
REMARK  117  A    between atoms: _268  and  _271
REMARK  118  A    between atoms: _271  and  _272
REMARK  119  A    between atoms: _272  and  _273
REMARK  120  A    between atoms: _278  and  _280
REMARK  121  A    between atoms: _280  and  _281
REMARK  122  A    between atoms: _283  and  _285
REMARK  123  A    between atoms: _285  and  _286
REMARK  124  A    between atoms: _285  and  _288
REMARK  125  A    between atoms: _288  and  _289
REMARK  126  A    between atoms: _291  and  _293
REMARK  127  A    between atoms: _293  and  _294
REMARK  128  A    between atoms: _293  and  _296
REMARK  129  A    between atoms: _296  and  _297
REMARK  130  A    between atoms: _297  and  _298
REMARK  131  A    between atoms: _298  and  _299
REMARK  132  A    between atoms: _308  and  _310
REMARK  133  A    between atoms: _310  and  _311
REMARK  134  A    between atoms: _314  and  _316
REMARK  135  A    between atoms: _316  and  _317
REMARK  136  A    between atoms: _316  and  _319
REMARK  137  A    between atoms: _322  and  _324
REMARK  138  A    between atoms: _324  and  _325
REMARK  139  A    between atoms: _327  and  _329
REMARK  140  A    between atoms: _329  and  _330
REMARK  141  A    between atoms: _332  and  _334
REMARK  142  A    between atoms: _334  and  _335
REMARK  143  A    between atoms: _334  and  _337
REMARK  144  A    between atoms: _337  and  _338
REMARK  145  A    between atoms: _341  and  _343
REMARK  146  A    between atoms: _343  and  _344
REMARK  147  A    between atoms: _347  and  _349
REMARK  148  A    between atoms: _349  and  _350
REMARK  149  A    between atoms: _349  and  _352
REMARK  150  A    between atoms: _355  and  _357
REMARK  151  A    between atoms: _357  and  _358
REMARK  152  A    between atoms: _360  and  _362
REMARK  153  A    between atoms: _362  and  _363
REMARK  154  A    between atoms: _362  and  _365
REMARK  155  A    between atoms: _365  and  _366
REMARK  156  A    between atoms: _366  and  _367
REMARK  157  A    between atoms: _370  and  _372
REMARK  158  A    between atoms: _372  and  _373
REMARK  159  A    between atoms: _372  and  _375
REMARK  160  A    between atoms: _375  and  _376
REMARK  161  A    between atoms: _376  and  _377
REMARK  162  A    between atoms: _379  and  _381
REMARK  163  A    between atoms: _381  and  _382
REMARK  164  A    between atoms: _381  and  _384
REMARK  165  A    between atoms: _384  and  _385
REMARK  166  A    between atoms: _390  and  _391
REMARK  167  A    between atoms: _393  and  _395
REMARK  168  A    between atoms: _395  and  _396
REMARK  169  A    between atoms: _395  and  _398
REMARK  170  A    between atoms: _398  and  _399
REMARK  171  A    between atoms: _402  and  _404
REMARK  172  A    between atoms: _404  and  _405
REMARK  173  A    between atoms: _404  and  _407
REMARK  174  A    between atoms: _407  and  _408
REMARK  175  A    between atoms: _408  and  _409
REMARK  176  A    between atoms: _411  and  _413
REMARK  177  A    between atoms: _413  and  _414
REMARK  178  A    between atoms: _416  and  _418
REMARK  179  A    between atoms: _418  and  _419
REMARK  180  A    between atoms: _418  and  _421
REMARK  181  A    between atoms: _424  and  _426
REMARK  182  A    between atoms: _426  and  _427
REMARK  183  A    between atoms: _429  and  _431
REMARK  184  A    between atoms: _431  and  _432
REMARK  185  A    between atoms: _431  and  _434
REMARK  186  A    between atoms: _434  and  _435
REMARK  187  A    between atoms: _441  and  _443
REMARK  188  A    between atoms: _443  and  _444
REMARK  189  A    between atoms: _443  and  _446
REMARK  190  A    between atoms: _446  and  _447
REMARK  191  A    between atoms: _450  and  _452
REMARK  192  A    between atoms: _452  and  _453
REMARK  193  A    between atoms: _452  and  _455
REMARK  194  A    between atoms: _457  and  _459
REMARK  195  A    between atoms: _459  and  _460
REMARK  196  A    between atoms: _459  and  _462
REMARK  197  A    between atoms: _465  and  _467
REMARK  198  A    between atoms: _467  and  _468
REMARK  199  A    between atoms: _467  and  _470
REMARK  200  A    between atoms: _470  and  _471
REMARK  201  A    between atoms: _474  and  _476
REMARK  202  A    between atoms: _476  and  _477
REMARK  203  A    between atoms: _476  and  _479
REMARK  204  A    between atoms: _479  and  _480
REMARK  205  A    between atoms: _480  and  _481
REMARK  206  A    between atoms: _481  and  _482
REMARK                            x       y       z     vdW  Elec       q    Type
REMARK                         _______ _______ _______ _____ _____    ______ ____
ROOT
ATOM      1  C   ASP A   2      16.283  10.782  13.906  0.00  0.00    +0.241 C 
ATOM      2  O   ASP A   2      17.207  11.520  14.257  0.00  0.00    -0.273 OA
ATOM      3  N   CYS A   3      15.508  11.030  12.858  0.00  0.00    -0.296 N 
ATOM      4  H   CYS A   3      14.733  10.387  12.598  0.00  0.00    +0.150 HD
ENDROOT
BRANCH   1   5
ATOM      5  CA  ASP A   2      15.950   9.548  14.738  0.00  0.00    +0.160 C 
BRANCH   5   7
ATOM      6  C   PHE A   1      17.441   7.753  15.370  0.00  0.00    +0.239 C 
ATOM      7  N   ASP A   2      17.168   9.055  15.362  0.00  0.00    -0.297 N 
ATOM      8  H   ASP A   2      17.829   9.724  15.805  0.00  0.00    +0.150 HD
ATOM      9  O   PHE A   1      16.657   6.844  15.088  0.00  0.00    -0.274 OA
BRANCH   6  10
ATOM     10  CA  PHE A   1      18.873   7.395  15.713  0.00  0.00    +0.149 C 
BRANCH  10  11
ATOM     11  N   PHE A   1      18.974   6.170  16.467  0.00  0.00    -0.238 NA
ATOM     12  H   PHE A   1      18.322   5.403  16.206  0.00  0.00    +0.142 HD
ENDBRANCH  10  11
BRANCH  10  13
ATOM     13  CB  PHE A   1      19.616   7.236  14.378  0.00  0.00    +0.053 C 
BRANCH  13  14
ATOM     14  CG  PHE A   1      21.090   6.923  14.512  0.00  0.00    -0.020 A 
ATOM     15  CD2 PHE A   1      22.048   7.917  14.603  0.00  0.00    -0.004 A 
ATOM     16  CE2 PHE A   1      23.398   7.628  14.722  0.00  0.00    -0.000 A 
ATOM     17  CZ  PHE A   1      23.803   6.318  14.751  0.00  0.00    -0.000 A 
ATOM     18  CE1 PHE A   1      22.863   5.311  14.664  0.00  0.00    -0.000 A 
ATOM     19  CD1 PHE A   1      21.515   5.608  14.547  0.00  0.00    -0.004 A 
ENDBRANCH  13  14
ENDBRANCH  10  13
ENDBRANCH   6  10
ENDBRANCH   5   7
BRANCH   5  20
ATOM     20  CB  ASP A   2      14.870   9.902  15.756  0.00  0.00    +0.143 C 
BRANCH  20  21
ATOM     21  CG  ASP A   2      15.114  11.298  16.325  0.00  0.00    +0.367 C 
ATOM     22  OD2 ASP A   2      15.893  11.438  17.286  0.00  0.00    -0.246 OA
ATOM     23  OD1 ASP A   2      14.515  12.264  15.812  0.00  0.00    -0.246 OA
ENDBRANCH  20  21
ENDBRANCH   5  20
ENDBRANCH   1   5
BRANCH   3  24
ATOM     24  CA  CYS A   3      15.784  12.247  12.076  0.00  0.00    +0.160 C 
BRANCH  24  25
ATOM     25  C   CYS A   3      14.655  12.559  11.117  0.00  0.00    +0.242 C 
ATOM     26  N   VAL A   4      14.336  13.827  10.876  0.00  0.00    -0.297 N 
ATOM     27  H   VAL A   4      14.832  14.602  11.361  0.00  0.00    +0.150 HD
ATOM     28  O   CYS A   3      14.051  11.634  10.559  0.00  0.00    -0.273 OA
BRANCH  26  29
ATOM     29  CA  VAL A   4      13.269  14.108   9.912  0.00  0.00    +0.149 C 
BRANCH  29  30
ATOM     30  C   VAL A   4      13.763  14.121   8.478  0.00  0.00    +0.241 C 
ATOM     31  N   LEU A   5      15.074  14.009   8.288  0.00  0.00    -0.298 N 
ATOM     32  H   LEU A   5      15.692  13.789   9.095  0.00  0.00    +0.150 HD
ATOM     33  O   VAL A   4      12.972  14.244   7.553  0.00  0.00    -0.273 OA
BRANCH  31  34
ATOM     34  CA  LEU A   5      15.663  14.192   6.955  0.00  0.00    +0.137 C 
BRANCH  34  35
ATOM     35  C   LEU A   5      15.012  13.315   5.892  0.00  0.00    +0.227 C 
ATOM     36  O   LEU A   5      14.578  13.831   4.859  0.00  0.00    -0.286 OA
ENDBRANCH  34  35
BRANCH  34  37
ATOM     37  CB  LEU A   5      17.166  13.920   6.983  0.00  0.00    +0.028 C 
BRANCH  37  38
ATOM     38  CG  LEU A   5      18.206  14.934   6.575  0.00  0.00    +0.002 C 
ATOM     39  CD2 LEU A   5      19.445  14.198   6.042  0.00  0.00    +0.000 C 
ATOM     40  CD1 LEU A   5      17.683  15.931   5.556  0.00  0.00    +0.000 C 
ENDBRANCH  37  38
ENDBRANCH  34  37
ENDBRANCH  31  34
ENDBRANCH  29  30
BRANCH  29  41
ATOM     41  CB  VAL A   4      12.598  15.464  10.229  0.00  0.00    +0.027 C 
ATOM     42  CG2 VAL A   4      11.949  15.385  11.602  0.00  0.00    +0.002 C 
ATOM     43  CG1 VAL A   4      13.621  16.579  10.109  0.00  0.00    +0.002 C 
ENDBRANCH  29  41
ENDBRANCH  26  29
ENDBRANCH  24  25
BRANCH  24  44
ATOM     44  CB  CYS A   3      17.106  12.047  11.325  0.00  0.00    +0.098 C 
ATOM     45  SG  CYS A   3      17.747  13.548  10.549  0.00  0.00    -0.080 S 
ENDBRANCH  24  44
ENDBRANCH   3  24
TORSDOF 18
REMARK  Name = ../refined-set-2016/3gc4/3gc4_pocket.pdb
REMARK  206 active torsions:
REMARK  status: ('A' for Active; 'I' for Inactive)
REMARK    1  A    between atoms: _1  and  _3
REMARK    2  A    between atoms: _3  and  _4
REMARK    3  A    between atoms: _3  and  _6
REMARK    4  A    between atoms: _6  and  _7
REMARK    5  A    between atoms: _7  and  _8
REMARK    6  A    between atoms: _10  and  _12
REMARK    7  A    between atoms: _12  and  _13
REMARK    8  A    between atoms: _12  and  _15
REMARK    9  A    between atoms: _18  and  _20
REMARK   10  A    between atoms: _20  and  _21
REMARK   11  A    between atoms: _23  and  _25
REMARK   12  A    between atoms: _25  and  _26
REMARK   13  A    between atoms: _25  and  _28
REMARK   14  A    between atoms: _28  and  _29
REMARK   15  A    between atoms: _32  and  _34
REMARK   16  A    between atoms: _34  and  _35
REMARK   17  A    between atoms: _34  and  _37
REMARK   18  A    between atoms: _37  and  _38
REMARK   19  A    between atoms: _38  and  _39
REMARK   20  A    between atoms: _39  and  _40
REMARK   21  A    between atoms: _40  and  _41
REMARK   22  A    between atoms: _45  and  _47
REMARK   23  A    between atoms: _47  and  _48
REMARK   24  A    between atoms: _47  and  _50
REMARK   25  A    between atoms: _50  and  _51
REMARK   26  A    between atoms: _54  and  _56
REMARK   27  A    between atoms: _56  and  _57
REMARK   28  A    between atoms: _59  and  _61
REMARK   29  A    between atoms: _61  and  _62
REMARK   30  A    between atoms: _61  and  _64
REMARK   31  A    between atoms: _64  and  _65
REMARK   32  A    between atoms: _70  and  _72
REMARK   33  A    between atoms: _72  and  _73
REMARK   34  A    between atoms: _72  and  _75
REMARK   35  A    between atoms: _75  and  _76
REMARK   36  A    between atoms: _79  and  _81
REMARK   37  A    between atoms: _81  and  _82
REMARK   38  A    between atoms: _81  and  _84
REMARK   39  A    between atoms: _84  and  _85
REMARK   40  A    between atoms: _90  and  _91
REMARK   41  A    between atoms: _93  and  _95
REMARK   42  A    between atoms: _95  and  _96
REMARK   43  A    between atoms: _95  and  _98
REMARK   44  A    between atoms: _98  and  _99
REMARK   45  A    between atoms: _104  and  _106
REMARK   46  A    between atoms: _106  and  _107
REMARK   47  A    between atoms: _106  and  _109
REMARK   48  A    between atoms: _109  and  _110
REMARK   49  A    between atoms: _113  and  _115
REMARK   50  A    between atoms: _115  and  _116
REMARK   51  A    between atoms: _115  and  _118
REMARK   52  A    between atoms: _118  and  _119
REMARK   53  A    between atoms: _122  and  _124
REMARK   54  A    between atoms: _124  and  _125
REMARK   55  A    between atoms: _124  and  _127
REMARK   56  A    between atoms: _127  and  _128
REMARK   57  A    between atoms: _131  and  _133
REMARK   58  A    between atoms: _133  and  _134
REMARK   59  A    between atoms: _133  and  _136
REMARK   60  A    between atoms: _136  and  _137
REMARK   61  A    between atoms: _139  and  _141
REMARK   62  A    between atoms: _141  and  _142
REMARK   63  A    between atoms: _144  and  _146
REMARK   64  A    between atoms: _146  and  _147
REMARK   65  A    between atoms: _149  and  _151
REMARK   66  A    between atoms: _151  and  _152
REMARK   67  A    between atoms: _151  and  _154
REMARK   68  A    between atoms: _154  and  _155
REMARK   69  A    between atoms: _160  and  _161
REMARK   70  A    between atoms: _163  and  _165
REMARK   71  A    between atoms: _165  and  _166
REMARK   72  A    between atoms: _165  and  _168
REMARK   73  A    between atoms: _168  and  _169
REMARK   74  A    between atoms: _169  and  _170
REMARK   75  A    between atoms: _175  and  _177
REMARK   76  A    between atoms: _177  and  _178
REMARK   77  A    between atoms: _177  and  _180
REMARK   78  A    between atoms: _180  and  _181
REMARK   79  A    between atoms: _181  and  _182
REMARK   80  A    between atoms: _184  and  _186
REMARK   81  A    between atoms: _186  and  _187
REMARK   82  A    between atoms: _190  and  _192
REMARK   83  A    between atoms: _192  and  _193
REMARK   84  A    between atoms: _192  and  _195
REMARK   85  A    between atoms: _195  and  _196
REMARK   86  A    between atoms: _202  and  _204
REMARK   87  A    between atoms: _204  and  _205
REMARK   88  A    between atoms: _204  and  _207
REMARK   89  A    between atoms: _207  and  _208
REMARK   90  A    between atoms: _211  and  _213
REMARK   91  A    between atoms: _213  and  _214
REMARK   92  A    between atoms: _213  and  _216
REMARK   93  A    between atoms: _216  and  _217
REMARK   94  A    between atoms: _217  and  _218
REMARK   95  A    between atoms: _221  and  _223
REMARK   96  A    between atoms: _223  and  _224
REMARK   97  A    between atoms: _223  and  _226
REMARK   98  A    between atoms: _228  and  _230
REMARK   99  A    between atoms: _230  and  _231
REMARK  100  A    between atoms: _230  and  _233
REMARK  101  A    between atoms: _233  and  _234
REMARK  102  A    between atoms: _237  and  _239
REMARK  103  A    between atoms: _239  and  _240
REMARK  104  A    between atoms: _239  and  _242
REMARK  105  A    between atoms: _242  and  _243
REMARK  106  A    between atoms: _245  and  _247
REMARK  107  A    between atoms: _247  and  _248
REMARK  108  A    between atoms: _247  and  _250
REMARK  109  A    between atoms: _250  and  _251
REMARK  110  A    between atoms: _254  and  _256
REMARK  111  A    between atoms: _256  and  _257
REMARK  112  A    between atoms: _256  and  _259
REMARK  113  A    between atoms: _259  and  _260
REMARK  114  A    between atoms: _260  and  _261
REMARK  115  A    between atoms: _266  and  _268
REMARK  116  A    between atoms: _268  and  _269
REMARK  117  A    between atoms: _268  and  _271
REMARK  118  A    between atoms: _271  and  _272
REMARK  119  A    between atoms: _272  and  _273
REMARK  120  A    between atoms: _278  and  _280
REMARK  121  A    between atoms: _280  and  _281
REMARK  122  A    between atoms: _283  and  _285
REMARK  123  A    between atoms: _285  and  _286
REMARK  124  A    between atoms: _285  and  _288
REMARK  125  A    between atoms: _288  and  _289
REMARK  126  A    between atoms: _291  and  _293
REMARK  127  A    between atoms: _293  and  _294
REMARK  128  A    between atoms: _293  and  _296
REMARK  129  A    between atoms: _296  and  _297
REMARK  130  A    between atoms: _297  and  _298
REMARK  131  A    between atoms: _298  and  _299
REMARK  132  A    between atoms: _308  and  _310
REMARK  133  A    between atoms: _310  and  _311
REMARK  134  A    between atoms: _314  and  _316
REMARK  135  A    between atoms: _316  and  _317
REMARK  136  A    between atoms: _316  and  _319
REMARK  137  A    between atoms: _322  and  _324
REMARK  138  A    between atoms: _324  and  _325
REMARK  139  A    between atoms: _327  and  _329
REMARK  140  A    between atoms: _329  and  _330
REMARK  141  A    between atoms: _332  and  _334
REMARK  142  A    between atoms: _334  and  _335
REMARK  143  A    between atoms: _334  and  _337
REMARK  144  A    between atoms: _337  and  _338
REMARK  145  A    between atoms: _341  and  _343
REMARK  146  A    between atoms: _343  and  _344
REMARK  147  A    between atoms: _347  and  _349
REMARK  148  A    between atoms: _349  and  _350
REMARK  149  A    between atoms: _349  and  _352
REMARK  150  A    between atoms: _355  and  _357
REMARK  151  A    between atoms: _357  and  _358
REMARK  152  A    between atoms: _360  and  _362
REMARK  153  A    between atoms: _362  and  _363
REMARK  154  A    between atoms: _362  and  _365
REMARK  155  A    between atoms: _365  and  _366
REMARK  156  A    between atoms: _366  and  _367
REMARK  157  A    between atoms: _370  and  _372
REMARK  158  A    between atoms: _372  and  _373
REMARK  159  A    between atoms: _372  and  _375
REMARK  160  A    between atoms: _375  and  _376
REMARK  161  A    between atoms: _376  and  _377
REMARK  162  A    between atoms: _379  and  _381
REMARK  163  A    between atoms: _381  and  _382
REMARK  164  A    between atoms: _381  and  _384
REMARK  165  A    between atoms: _384  and  _385
REMARK  166  A    between atoms: _390  and  _391
REMARK  167  A    between atoms: _393  and  _395
REMARK  168  A    between atoms: _395  and  _396
REMARK  169  A    between atoms: _395  and  _398
REMARK  170  A    between atoms: _398  and  _399
REMARK  171  A    between atoms: _402  and  _404
REMARK  172  A    between atoms: _404  and  _405
REMARK  173  A    between atoms: _404  and  _407
REMARK  174  A    between atoms: _407  and  _408
REMARK  175  A    between atoms: _408  and  _409
REMARK  176  A    between atoms: _411  and  _413
REMARK  177  A    between atoms: _413  and  _414
REMARK  178  A    between atoms: _416  and  _418
REMARK  179  A    between atoms: _418  and  _419
REMARK  180  A    between atoms: _418  and  _421
REMARK  181  A    between atoms: _424  and  _426
REMARK  182  A    between atoms: _426  and  _427
REMARK  183  A    between atoms: _429  and  _431
REMARK  184  A    between atoms: _431  and  _432
REMARK  185  A    between atoms: _431  and  _434
REMARK  186  A    between atoms: _434  and  _435
REMARK  187  A    between atoms: _441  and  _443
REMARK  188  A    between atoms: _443  and  _444
REMARK  189  A    between atoms: _443  and  _446
REMARK  190  A    between atoms: _446  and  _447
REMARK  191  A    between atoms: _450  and  _452
REMARK  192  A    between atoms: _452  and  _453
REMARK  193  A    between atoms: _452  and  _455
REMARK  194  A    between atoms: _457  and  _459
REMARK  195  A    between atoms: _459  and  _460
REMARK  196  A    between atoms: _459  and  _462
REMARK  197  A    between atoms: _465  and  _467
REMARK  198  A    between atoms: _467  and  _468
REMARK  199  A    between atoms: _467  and  _470
REMARK  200  A    between atoms: _470  and  _471
REMARK  201  A    between atoms: _474  and  _476
REMARK  202  A    between atoms: _476  and  _477
REMARK  203  A    between atoms: _476  and  _479
REMARK  204  A    between atoms: _479  and  _480
REMARK  205  A    between atoms: _480  and  _481
REMARK  206  A    between atoms: _481  and  _482
REMARK                            x       y       z     vdW  Elec       q    Type
REMARK                         _______ _______ _______ _____ _____    ______ ____
ROOT
ATOM      1  NE  ARG A   1      12.762  19.348   7.563  0.00  0.00    -0.265 N 
ATOM      2  CZ  ARG A   1      13.048  19.663   8.824  0.00  0.00    +0.342 C 
ATOM      3  NH2 ARG A   1      12.072  19.809   9.714  0.00  0.00    -0.292 N 
ATOM      4 HH21 ARG A   1      12.299  20.055  10.699  0.00  0.00    +0.255 HD
ATOM      5 HH22 ARG A   1      11.081  19.677   9.426  0.00  0.00    +0.255 HD
ATOM      6  NH1 ARG A   1      14.320  19.832   9.178  0.00  0.00    -0.292 N 
ATOM      7 HH11 ARG A   1      14.558  20.078  10.160  0.00  0.00    +0.255 HD
ATOM      8 HH12 ARG A   1      15.076  19.718   8.473  0.00  0.00    +0.255 HD
ATOM      9  HE  ARG A   1      13.551  19.242   6.894  0.00  0.00    +0.259 HD
ENDROOT
BRANCH   1  10
ATOM     10  CD  ARG A   1      11.401  19.142   7.063  0.00  0.00    +0.174 C 
BRANCH  10  11
ATOM     11  CG  ARG A   1      11.455  18.377   5.747  0.00  0.00    +0.045 C 
BRANCH  11  12
ATOM     12  CB  ARG A   1      11.754  16.904   6.014  0.00  0.00    +0.029 C 
BRANCH  12  13
ATOM     13  CA  ARG A   1      11.091  15.996   4.974  0.00  0.00    +0.133 C 
BRANCH  13  14
ATOM     14  N   ARG A   1      11.170  14.604   5.402  0.00  0.00    -0.239 NA
ATOM     15  H   ARG A   1      11.611  14.369   6.314  0.00  0.00    +0.142 HD
ENDBRANCH  13  14
BRANCH  13  16
ATOM     16  C   ARG A   1      11.776  16.251   3.652  0.00  0.00    +0.224 C 
ATOM     17  O   ARG A   1      11.245  16.877   2.730  0.00  0.00    -0.287 OA
ENDBRANCH  13  16
ENDBRANCH  12  13
ENDBRANCH  11  12
ENDBRANCH  10  11
ENDBRANCH   1  10
TORSDOF 6
REMARK  Name = ../refined-set-2016/3gc4/3gc4_pocket.pdb
REMARK  206 active torsions:
REMARK  status: ('A' for Active; 'I' for Inactive)
REMARK    1  A    between atoms: _1  and  _3
REMARK    2  A    between atoms: _3  and  _4
REMARK    3  A    between atoms: _3  and  _6
REMARK    4  A    between atoms: _6  and  _7
REMARK    5  A    between atoms: _7  and  _8
REMARK    6  A    between atoms: _10  and  _12
REMARK    7  A    between atoms: _12  and  _13
REMARK    8  A    between atoms: _12  and  _15
REMARK    9  A    between atoms: _18  and  _20
REMARK   10  A    between atoms: _20  and  _21
REMARK   11  A    between atoms: _23  and  _25
REMARK   12  A    between atoms: _25  and  _26
REMARK   13  A    between atoms: _25  and  _28
REMARK   14  A    between atoms: _28  and  _29
REMARK   15  A    between atoms: _32  and  _34
REMARK   16  A    between atoms: _34  and  _35
REMARK   17  A    between atoms: _34  and  _37
REMARK   18  A    between atoms: _37  and  _38
REMARK   19  A    between atoms: _38  and  _39
REMARK   20  A    between atoms: _39  and  _40
REMARK   21  A    between atoms: _40  and  _41
REMARK   22  A    between atoms: _45  and  _47
REMARK   23  A    between atoms: _47  and  _48
REMARK   24  A    between atoms: _47  and  _50
REMARK   25  A    between atoms: _50  and  _51
REMARK   26  A    between atoms: _54  and  _56
REMARK   27  A    between atoms: _56  and  _57
REMARK   28  A    between atoms: _59  and  _61
REMARK   29  A    between atoms: _61  and  _62
REMARK   30  A    between atoms: _61  and  _64
REMARK   31  A    between atoms: _64  and  _65
REMARK   32  A    between atoms: _70  and  _72
REMARK   33  A    between atoms: _72  and  _73
REMARK   34  A    between atoms: _72  and  _75
REMARK   35  A    between atoms: _75  and  _76
REMARK   36  A    between atoms: _79  and  _81
REMARK   37  A    between atoms: _81  and  _82
REMARK   38  A    between atoms: _81  and  _84
REMARK   39  A    between atoms: _84  and  _85
REMARK   40  A    between atoms: _90  and  _91
REMARK   41  A    between atoms: _93  and  _95
REMARK   42  A    between atoms: _95  and  _96
REMARK   43  A    between atoms: _95  and  _98
REMARK   44  A    between atoms: _98  and  _99
REMARK   45  A    between atoms: _104  and  _106
REMARK   46  A    between atoms: _106  and  _107
REMARK   47  A    between atoms: _106  and  _109
REMARK   48  A    between atoms: _109  and  _110
REMARK   49  A    between atoms: _113  and  _115
REMARK   50  A    between atoms: _115  and  _116
REMARK   51  A    between atoms: _115  and  _118
REMARK   52  A    between atoms: _118  and  _119
REMARK   53  A    between atoms: _122  and  _124
REMARK   54  A    between atoms: _124  and  _125
REMARK   55  A    between atoms: _124  and  _127
REMARK   56  A    between atoms: _127  and  _128
REMARK   57  A    between atoms: _131  and  _133
REMARK   58  A    between atoms: _133  and  _134
REMARK   59  A    between atoms: _133  and  _136
REMARK   60  A    between atoms: _136  and  _137
REMARK   61  A    between atoms: _139  and  _141
REMARK   62  A    between atoms: _141  and  _142
REMARK   63  A    between atoms: _144  and  _146
REMARK   64  A    between atoms: _146  and  _147
REMARK   65  A    between atoms: _149  and  _151
REMARK   66  A    between atoms: _151  and  _152
REMARK   67  A    between atoms: _151  and  _154
REMARK   68  A    between atoms: _154  and  _155
REMARK   69  A    between atoms: _160  and  _161
REMARK   70  A    between atoms: _163  and  _165
REMARK   71  A    between atoms: _165  and  _166
REMARK   72  A    between atoms: _165  and  _168
REMARK   73  A    between atoms: _168  and  _169
REMARK   74  A    between atoms: _169  and  _170
REMARK   75  A    between atoms: _175  and  _177
REMARK   76  A    between atoms: _177  and  _178
REMARK   77  A    between atoms: _177  and  _180
REMARK   78  A    between atoms: _180  and  _181
REMARK   79  A    between atoms: _181  and  _182
REMARK   80  A    between atoms: _184  and  _186
REMARK   81  A    between atoms: _186  and  _187
REMARK   82  A    between atoms: _190  and  _192
REMARK   83  A    between atoms: _192  and  _193
REMARK   84  A    between atoms: _192  and  _195
REMARK   85  A    between atoms: _195  and  _196
REMARK   86  A    between atoms: _202  and  _204
REMARK   87  A    between atoms: _204  and  _205
REMARK   88  A    between atoms: _204  and  _207
REMARK   89  A    between atoms: _207  and  _208
REMARK   90  A    between atoms: _211  and  _213
REMARK   91  A    between atoms: _213  and  _214
REMARK   92  A    between atoms: _213  and  _216
REMARK   93  A    between atoms: _216  and  _217
REMARK   94  A    between atoms: _217  and  _218
REMARK   95  A    between atoms: _221  and  _223
REMARK   96  A    between atoms: _223  and  _224
REMARK   97  A    between atoms: _223  and  _226
REMARK   98  A    between atoms: _228  and  _230
REMARK   99  A    between atoms: _230  and  _231
REMARK  100  A    between atoms: _230  and  _233
REMARK  101  A    between atoms: _233  and  _234
REMARK  102  A    between atoms: _237  and  _239
REMARK  103  A    between atoms: _239  and  _240
REMARK  104  A    between atoms: _239  and  _242
REMARK  105  A    between atoms: _242  and  _243
REMARK  106  A    between atoms: _245  and  _247
REMARK  107  A    between atoms: _247  and  _248
REMARK  108  A    between atoms: _247  and  _250
REMARK  109  A    between atoms: _250  and  _251
REMARK  110  A    between atoms: _254  and  _256
REMARK  111  A    between atoms: _256  and  _257
REMARK  112  A    between atoms: _256  and  _259
REMARK  113  A    between atoms: _259  and  _260
REMARK  114  A    between atoms: _260  and  _261
REMARK  115  A    between atoms: _266  and  _268
REMARK  116  A    between atoms: _268  and  _269
REMARK  117  A    between atoms: _268  and  _271
REMARK  118  A    between atoms: _271  and  _272
REMARK  119  A    between atoms: _272  and  _273
REMARK  120  A    between atoms: _278  and  _280
REMARK  121  A    between atoms: _280  and  _281
REMARK  122  A    between atoms: _283  and  _285
REMARK  123  A    between atoms: _285  and  _286
REMARK  124  A    between atoms: _285  and  _288
REMARK  125  A    between atoms: _288  and  _289
REMARK  126  A    between atoms: _291  and  _293
REMARK  127  A    between atoms: _293  and  _294
REMARK  128  A    between atoms: _293  and  _296
REMARK  129  A    between atoms: _296  and  _297
REMARK  130  A    between atoms: _297  and  _298
REMARK  131  A    between atoms: _298  and  _299
REMARK  132  A    between atoms: _308  and  _310
REMARK  133  A    between atoms: _310  and  _311
REMARK  134  A    between atoms: _314  and  _316
REMARK  135  A    between atoms: _316  and  _317
REMARK  136  A    between atoms: _316  and  _319
REMARK  137  A    between atoms: _322  and  _324
REMARK  138  A    between atoms: _324  and  _325
REMARK  139  A    between atoms: _327  and  _329
REMARK  140  A    between atoms: _329  and  _330
REMARK  141  A    between atoms: _332  and  _334
REMARK  142  A    between atoms: _334  and  _335
REMARK  143  A    between atoms: _334  and  _337
REMARK  144  A    between atoms: _337  and  _338
REMARK  145  A    between atoms: _341  and  _343
REMARK  146  A    between atoms: _343  and  _344
REMARK  147  A    between atoms: _347  and  _349
REMARK  148  A    between atoms: _349  and  _350
REMARK  149  A    between atoms: _349  and  _352
REMARK  150  A    between atoms: _355  and  _357
REMARK  151  A    between atoms: _357  and  _358
REMARK  152  A    between atoms: _360  and  _362
REMARK  153  A    between atoms: _362  and  _363
REMARK  154  A    between atoms: _362  and  _365
REMARK  155  A    between atoms: _365  and  _366
REMARK  156  A    between atoms: _366  and  _367
REMARK  157  A    between atoms: _370  and  _372
REMARK  158  A    between atoms: _372  and  _373
REMARK  159  A    between atoms: _372  and  _375
REMARK  160  A    between atoms: _375  and  _376
REMARK  161  A    between atoms: _376  and  _377
REMARK  162  A    between atoms: _379  and  _381
REMARK  163  A    between atoms: _381  and  _382
REMARK  164  A    between atoms: _381  and  _384
REMARK  165  A    between atoms: _384  and  _385
REMARK  166  A    between atoms: _390  and  _391
REMARK  167  A    between atoms: _393  and  _395
REMARK  168  A    between atoms: _395  and  _396
REMARK  169  A    between atoms: _395  and  _398
REMARK  170  A    between atoms: _398  and  _399
REMARK  171  A    between atoms: _402  and  _404
REMARK  172  A    between atoms: _404  and  _405
REMARK  173  A    between atoms: _404  and  _407
REMARK  174  A    between atoms: _407  and  _408
REMARK  175  A    between atoms: _408  and  _409
REMARK  176  A    between atoms: _411  and  _413
REMARK  177  A    between atoms: _413  and  _414
REMARK  178  A    between atoms: _416  and  _418
REMARK  179  A    between atoms: _418  and  _419
REMARK  180  A    between atoms: _418  and  _421
REMARK  181  A    between atoms: _424  and  _426
REMARK  182  A    between atoms: _426  and  _427
REMARK  183  A    between atoms: _429  and  _431
REMARK  184  A    between atoms: _431  and  _432
REMARK  185  A    between atoms: _431  and  _434
REMARK  186  A    between atoms: _434  and  _435
REMARK  187  A    between atoms: _441  and  _443
REMARK  188  A    between atoms: _443  and  _444
REMARK  189  A    between atoms: _443  and  _446
REMARK  190  A    between atoms: _446  and  _447
REMARK  191  A    between atoms: _450  and  _452
REMARK  192  A    between atoms: _452  and  _453
REMARK  193  A    between atoms: _452  and  _455
REMARK  194  A    between atoms: _457  and  _459
REMARK  195  A    between atoms: _459  and  _460
REMARK  196  A    between atoms: _459  and  _462
REMARK  197  A    between atoms: _465  and  _467
REMARK  198  A    between atoms: _467  and  _468
REMARK  199  A    between atoms: _467  and  _470
REMARK  200  A    between atoms: _470  and  _471
REMARK  201  A    between atoms: _474  and  _476
REMARK  202  A    between atoms: _476  and  _477
REMARK  203  A    between atoms: _476  and  _479
REMARK  204  A    between atoms: _479  and  _480
REMARK  205  A    between atoms: _480  and  _481
REMARK  206  A    between atoms: _481  and  _482
REMARK                            x       y       z     vdW  Elec       q    Type
REMARK                         _______ _______ _______ _____ _____    ______ ____
ROOT
ATOM      1  O   HOH     1      15.925  15.654  12.670  0.00  0.00    +0.000 OA
ENDROOT
TORSDOF 0
REMARK  Name = ../refined-set-2016/3gc4/3gc4_pocket.pdb
REMARK  206 active torsions:
REMARK  status: ('A' for Active; 'I' for Inactive)
REMARK    1  A    between atoms: _1  and  _3
REMARK    2  A    between atoms: _3  and  _4
REMARK    3  A    between atoms: _3  and  _6
REMARK    4  A    between atoms: _6  and  _7
REMARK    5  A    between atoms: _7  and  _8
REMARK    6  A    between atoms: _10  and  _12
REMARK    7  A    between atoms: _12  and  _13
REMARK    8  A    between atoms: _12  and  _15
REMARK    9  A    between atoms: _18  and  _20
REMARK   10  A    between atoms: _20  and  _21
REMARK   11  A    between atoms: _23  and  _25
REMARK   12  A    between atoms: _25  and  _26
REMARK   13  A    between atoms: _25  and  _28
REMARK   14  A    between atoms: _28  and  _29
REMARK   15  A    between atoms: _32  and  _34
REMARK   16  A    between atoms: _34  and  _35
REMARK   17  A    between atoms: _34  and  _37
REMARK   18  A    between atoms: _37  and  _38
REMARK   19  A    between atoms: _38  and  _39
REMARK   20  A    between atoms: _39  and  _40
REMARK   21  A    between atoms: _40  and  _41
REMARK   22  A    between atoms: _45  and  _47
REMARK   23  A    between atoms: _47  and  _48
REMARK   24  A    between atoms: _47  and  _50
REMARK   25  A    between atoms: _50  and  _51
REMARK   26  A    between atoms: _54  and  _56
REMARK   27  A    between atoms: _56  and  _57
REMARK   28  A    between atoms: _59  and  _61
REMARK   29  A    between atoms: _61  and  _62
REMARK   30  A    between atoms: _61  and  _64
REMARK   31  A    between atoms: _64  and  _65
REMARK   32  A    between atoms: _70  and  _72
REMARK   33  A    between atoms: _72  and  _73
REMARK   34  A    between atoms: _72  and  _75
REMARK   35  A    between atoms: _75  and  _76
REMARK   36  A    between atoms: _79  and  _81
REMARK   37  A    between atoms: _81  and  _82
REMARK   38  A    between atoms: _81  and  _84
REMARK   39  A    between atoms: _84  and  _85
REMARK   40  A    between atoms: _90  and  _91
REMARK   41  A    between atoms: _93  and  _95
REMARK   42  A    between atoms: _95  and  _96
REMARK   43  A    between atoms: _95  and  _98
REMARK   44  A    between atoms: _98  and  _99
REMARK   45  A    between atoms: _104  and  _106
REMARK   46  A    between atoms: _106  and  _107
REMARK   47  A    between atoms: _106  and  _109
REMARK   48  A    between atoms: _109  and  _110
REMARK   49  A    between atoms: _113  and  _115
REMARK   50  A    between atoms: _115  and  _116
REMARK   51  A    between atoms: _115  and  _118
REMARK   52  A    between atoms: _118  and  _119
REMARK   53  A    between atoms: _122  and  _124
REMARK   54  A    between atoms: _124  and  _125
REMARK   55  A    between atoms: _124  and  _127
REMARK   56  A    between atoms: _127  and  _128
REMARK   57  A    between atoms: _131  and  _133
REMARK   58  A    between atoms: _133  and  _134
REMARK   59  A    between atoms: _133  and  _136
REMARK   60  A    between atoms: _136  and  _137
REMARK   61  A    between atoms: _139  and  _141
REMARK   62  A    between atoms: _141  and  _142
REMARK   63  A    between atoms: _144  and  _146
REMARK   64  A    between atoms: _146  and  _147
REMARK   65  A    between atoms: _149  and  _151
REMARK   66  A    between atoms: _151  and  _152
REMARK   67  A    between atoms: _151  and  _154
REMARK   68  A    between atoms: _154  and  _155
REMARK   69  A    between atoms: _160  and  _161
REMARK   70  A    between atoms: _163  and  _165
REMARK   71  A    between atoms: _165  and  _166
REMARK   72  A    between atoms: _165  and  _168
REMARK   73  A    between atoms: _168  and  _169
REMARK   74  A    between atoms: _169  and  _170
REMARK   75  A    between atoms: _175  and  _177
REMARK   76  A    between atoms: _177  and  _178
REMARK   77  A    between atoms: _177  and  _180
REMARK   78  A    between atoms: _180  and  _181
REMARK   79  A    between atoms: _181  and  _182
REMARK   80  A    between atoms: _184  and  _186
REMARK   81  A    between atoms: _186  and  _187
REMARK   82  A    between atoms: _190  and  _192
REMARK   83  A    between atoms: _192  and  _193
REMARK   84  A    between atoms: _192  and  _195
REMARK   85  A    between atoms: _195  and  _196
REMARK   86  A    between atoms: _202  and  _204
REMARK   87  A    between atoms: _204  and  _205
REMARK   88  A    between atoms: _204  and  _207
REMARK   89  A    between atoms: _207  and  _208
REMARK   90  A    between atoms: _211  and  _213
REMARK   91  A    between atoms: _213  and  _214
REMARK   92  A    between atoms: _213  and  _216
REMARK   93  A    between atoms: _216  and  _217
REMARK   94  A    between atoms: _217  and  _218
REMARK   95  A    between atoms: _221  and  _223
REMARK   96  A    between atoms: _223  and  _224
REMARK   97  A    between atoms: _223  and  _226
REMARK   98  A    between atoms: _228  and  _230
REMARK   99  A    between atoms: _230  and  _231
REMARK  100  A    between atoms: _230  and  _233
REMARK  101  A    between atoms: _233  and  _234
REMARK  102  A    between atoms: _237  and  _239
REMARK  103  A    between atoms: _239  and  _240
REMARK  104  A    between atoms: _239  and  _242
REMARK  105  A    between atoms: _242  and  _243
REMARK  106  A    between atoms: _245  and  _247
REMARK  107  A    between atoms: _247  and  _248
REMARK  108  A    between atoms: _247  and  _250
REMARK  109  A    between atoms: _250  and  _251
REMARK  110  A    between atoms: _254  and  _256
REMARK  111  A    between atoms: _256  and  _257
REMARK  112  A    between atoms: _256  and  _259
REMARK  113  A    between atoms: _259  and  _260
REMARK  114  A    between atoms: _260  and  _261
REMARK  115  A    between atoms: _266  and  _268
REMARK  116  A    between atoms: _268  and  _269
REMARK  117  A    between atoms: _268  and  _271
REMARK  118  A    between atoms: _271  and  _272
REMARK  119  A    between atoms: _272  and  _273
REMARK  120  A    between atoms: _278  and  _280
REMARK  121  A    between atoms: _280  and  _281
REMARK  122  A    between atoms: _283  and  _285
REMARK  123  A    between atoms: _285  and  _286
REMARK  124  A    between atoms: _285  and  _288
REMARK  125  A    between atoms: _288  and  _289
REMARK  126  A    between atoms: _291  and  _293
REMARK  127  A    between atoms: _293  and  _294
REMARK  128  A    between atoms: _293  and  _296
REMARK  129  A    between atoms: _296  and  _297
REMARK  130  A    between atoms: _297  and  _298
REMARK  131  A    between atoms: _298  and  _299
REMARK  132  A    between atoms: _308  and  _310
REMARK  133  A    between atoms: _310  and  _311
REMARK  134  A    between atoms: _314  and  _316
REMARK  135  A    between atoms: _316  and  _317
REMARK  136  A    between atoms: _316  and  _319
REMARK  137  A    between atoms: _322  and  _324
REMARK  138  A    between atoms: _324  and  _325
REMARK  139  A    between atoms: _327  and  _329
REMARK  140  A    between atoms: _329  and  _330
REMARK  141  A    between atoms: _332  and  _334
REMARK  142  A    between atoms: _334  and  _335
REMARK  143  A    between atoms: _334  and  _337
REMARK  144  A    between atoms: _337  and  _338
REMARK  145  A    between atoms: _341  and  _343
REMARK  146  A    between atoms: _343  and  _344
REMARK  147  A    between atoms: _347  and  _349
REMARK  148  A    between atoms: _349  and  _350
REMARK  149  A    between atoms: _349  and  _352
REMARK  150  A    between atoms: _355  and  _357
REMARK  151  A    between atoms: _357  and  _358
REMARK  152  A    between atoms: _360  and  _362
REMARK  153  A    between atoms: _362  and  _363
REMARK  154  A    between atoms: _362  and  _365
REMARK  155  A    between atoms: _365  and  _366
REMARK  156  A    between atoms: _366  and  _367
REMARK  157  A    between atoms: _370  and  _372
REMARK  158  A    between atoms: _372  and  _373
REMARK  159  A    between atoms: _372  and  _375
REMARK  160  A    between atoms: _375  and  _376
REMARK  161  A    between atoms: _376  and  _377
REMARK  162  A    between atoms: _379  and  _381
REMARK  163  A    between atoms: _381  and  _382
REMARK  164  A    between atoms: _381  and  _384
REMARK  165  A    between atoms: _384  and  _385
REMARK  166  A    between atoms: _390  and  _391
REMARK  167  A    between atoms: _393  and  _395
REMARK  168  A    between atoms: _395  and  _396
REMARK  169  A    between atoms: _395  and  _398
REMARK  170  A    between atoms: _398  and  _399
REMARK  171  A    between atoms: _402  and  _404
REMARK  172  A    between atoms: _404  and  _405
REMARK  173  A    between atoms: _404  and  _407
REMARK  174  A    between atoms: _407  and  _408
REMARK  175  A    between atoms: _408  and  _409
REMARK  176  A    between atoms: _411  and  _413
REMARK  177  A    between atoms: _413  and  _414
REMARK  178  A    between atoms: _416  and  _418
REMARK  179  A    between atoms: _418  and  _419
REMARK  180  A    between atoms: _418  and  _421
REMARK  181  A    between atoms: _424  and  _426
REMARK  182  A    between atoms: _426  and  _427
REMARK  183  A    between atoms: _429  and  _431
REMARK  184  A    between atoms: _431  and  _432
REMARK  185  A    between atoms: _431  and  _434
REMARK  186  A    between atoms: _434  and  _435
REMARK  187  A    between atoms: _441  and  _443
REMARK  188  A    between atoms: _443  and  _444
REMARK  189  A    between atoms: _443  and  _446
REMARK  190  A    between atoms: _446  and  _447
REMARK  191  A    between atoms: _450  and  _452
REMARK  192  A    between atoms: _452  and  _453
REMARK  193  A    between atoms: _452  and  _455
REMARK  194  A    between atoms: _457  and  _459
REMARK  195  A    between atoms: _459  and  _460
REMARK  196  A    between atoms: _459  and  _462
REMARK  197  A    between atoms: _465  and  _467
REMARK  198  A    between atoms: _467  and  _468
REMARK  199  A    between atoms: _467  and  _470
REMARK  200  A    between atoms: _470  and  _471
REMARK  201  A    between atoms: _474  and  _476
REMARK  202  A    between atoms: _476  and  _477
REMARK  203  A    between atoms: _476  and  _479
REMARK  204  A    between atoms: _479  and  _480
REMARK  205  A    between atoms: _480  and  _481
REMARK  206  A    between atoms: _481  and  _482
REMARK                            x       y       z     vdW  Elec       q    Type
REMARK                         _______ _______ _______ _____ _____    ______ ____
ROOT
ATOM      1  O   HOH     1      11.806  10.505   9.545  0.00  0.00    +0.000 OA
ENDROOT
TORSDOF 0
REMARK  Name = ../refined-set-2016/3gc4/3gc4_pocket.pdb
REMARK  206 active torsions:
REMARK  status: ('A' for Active; 'I' for Inactive)
REMARK    1  A    between atoms: _1  and  _3
REMARK    2  A    between atoms: _3  and  _4
REMARK    3  A    between atoms: _3  and  _6
REMARK    4  A    between atoms: _6  and  _7
REMARK    5  A    between atoms: _7  and  _8
REMARK    6  A    between atoms: _10  and  _12
REMARK    7  A    between atoms: _12  and  _13
REMARK    8  A    between atoms: _12  and  _15
REMARK    9  A    between atoms: _18  and  _20
REMARK   10  A    between atoms: _20  and  _21
REMARK   11  A    between atoms: _23  and  _25
REMARK   12  A    between atoms: _25  and  _26
REMARK   13  A    between atoms: _25  and  _28
REMARK   14  A    between atoms: _28  and  _29
REMARK   15  A    between atoms: _32  and  _34
REMARK   16  A    between atoms: _34  and  _35
REMARK   17  A    between atoms: _34  and  _37
REMARK   18  A    between atoms: _37  and  _38
REMARK   19  A    between atoms: _38  and  _39
REMARK   20  A    between atoms: _39  and  _40
REMARK   21  A    between atoms: _40  and  _41
REMARK   22  A    between atoms: _45  and  _47
REMARK   23  A    between atoms: _47  and  _48
REMARK   24  A    between atoms: _47  and  _50
REMARK   25  A    between atoms: _50  and  _51
REMARK   26  A    between atoms: _54  and  _56
REMARK   27  A    between atoms: _56  and  _57
REMARK   28  A    between atoms: _59  and  _61
REMARK   29  A    between atoms: _61  and  _62
REMARK   30  A    between atoms: _61  and  _64
REMARK   31  A    between atoms: _64  and  _65
REMARK   32  A    between atoms: _70  and  _72
REMARK   33  A    between atoms: _72  and  _73
REMARK   34  A    between atoms: _72  and  _75
REMARK   35  A    between atoms: _75  and  _76
REMARK   36  A    between atoms: _79  and  _81
REMARK   37  A    between atoms: _81  and  _82
REMARK   38  A    between atoms: _81  and  _84
REMARK   39  A    between atoms: _84  and  _85
REMARK   40  A    between atoms: _90  and  _91
REMARK   41  A    between atoms: _93  and  _95
REMARK   42  A    between atoms: _95  and  _96
REMARK   43  A    between atoms: _95  and  _98
REMARK   44  A    between atoms: _98  and  _99
REMARK   45  A    between atoms: _104  and  _106
REMARK   46  A    between atoms: _106  and  _107
REMARK   47  A    between atoms: _106  and  _109
REMARK   48  A    between atoms: _109  and  _110
REMARK   49  A    between atoms: _113  and  _115
REMARK   50  A    between atoms: _115  and  _116
REMARK   51  A    between atoms: _115  and  _118
REMARK   52  A    between atoms: _118  and  _119
REMARK   53  A    between atoms: _122  and  _124
REMARK   54  A    between atoms: _124  and  _125
REMARK   55  A    between atoms: _124  and  _127
REMARK   56  A    between atoms: _127  and  _128
REMARK   57  A    between atoms: _131  and  _133
REMARK   58  A    between atoms: _133  and  _134
REMARK   59  A    between atoms: _133  and  _136
REMARK   60  A    between atoms: _136  and  _137
REMARK   61  A    between atoms: _139  and  _141
REMARK   62  A    between atoms: _141  and  _142
REMARK   63  A    between atoms: _144  and  _146
REMARK   64  A    between atoms: _146  and  _147
REMARK   65  A    between atoms: _149  and  _151
REMARK   66  A    between atoms: _151  and  _152
REMARK   67  A    between atoms: _151  and  _154
REMARK   68  A    between atoms: _154  and  _155
REMARK   69  A    between atoms: _160  and  _161
REMARK   70  A    between atoms: _163  and  _165
REMARK   71  A    between atoms: _165  and  _166
REMARK   72  A    between atoms: _165  and  _168
REMARK   73  A    between atoms: _168  and  _169
REMARK   74  A    between atoms: _169  and  _170
REMARK   75  A    between atoms: _175  and  _177
REMARK   76  A    between atoms: _177  and  _178
REMARK   77  A    between atoms: _177  and  _180
REMARK   78  A    between atoms: _180  and  _181
REMARK   79  A    between atoms: _181  and  _182
REMARK   80  A    between atoms: _184  and  _186
REMARK   81  A    between atoms: _186  and  _187
REMARK   82  A    between atoms: _190  and  _192
REMARK   83  A    between atoms: _192  and  _193
REMARK   84  A    between atoms: _192  and  _195
REMARK   85  A    between atoms: _195  and  _196
REMARK   86  A    between atoms: _202  and  _204
REMARK   87  A    between atoms: _204  and  _205
REMARK   88  A    between atoms: _204  and  _207
REMARK   89  A    between atoms: _207  and  _208
REMARK   90  A    between atoms: _211  and  _213
REMARK   91  A    between atoms: _213  and  _214
REMARK   92  A    between atoms: _213  and  _216
REMARK   93  A    between atoms: _216  and  _217
REMARK   94  A    between atoms: _217  and  _218
REMARK   95  A    between atoms: _221  and  _223
REMARK   96  A    between atoms: _223  and  _224
REMARK   97  A    between atoms: _223  and  _226
REMARK   98  A    between atoms: _228  and  _230
REMARK   99  A    between atoms: _230  and  _231
REMARK  100  A    between atoms: _230  and  _233
REMARK  101  A    between atoms: _233  and  _234
REMARK  102  A    between atoms: _237  and  _239
REMARK  103  A    between atoms: _239  and  _240
REMARK  104  A    between atoms: _239  and  _242
REMARK  105  A    between atoms: _242  and  _243
REMARK  106  A    between atoms: _245  and  _247
REMARK  107  A    between atoms: _247  and  _248
REMARK  108  A    between atoms: _247  and  _250
REMARK  109  A    between atoms: _250  and  _251
REMARK  110  A    between atoms: _254  and  _256
REMARK  111  A    between atoms: _256  and  _257
REMARK  112  A    between atoms: _256  and  _259
REMARK  113  A    between atoms: _259  and  _260
REMARK  114  A    between atoms: _260  and  _261
REMARK  115  A    between atoms: _266  and  _268
REMARK  116  A    between atoms: _268  and  _269
REMARK  117  A    between atoms: _268  and  _271
REMARK  118  A    between atoms: _271  and  _272
REMARK  119  A    between atoms: _272  and  _273
REMARK  120  A    between atoms: _278  and  _280
REMARK  121  A    between atoms: _280  and  _281
REMARK  122  A    between atoms: _283  and  _285
REMARK  123  A    between atoms: _285  and  _286
REMARK  124  A    between atoms: _285  and  _288
REMARK  125  A    between atoms: _288  and  _289
REMARK  126  A    between atoms: _291  and  _293
REMARK  127  A    between atoms: _293  and  _294
REMARK  128  A    between atoms: _293  and  _296
REMARK  129  A    between atoms: _296  and  _297
REMARK  130  A    between atoms: _297  and  _298
REMARK  131  A    between atoms: _298  and  _299
REMARK  132  A    between atoms: _308  and  _310
REMARK  133  A    between atoms: _310  and  _311
REMARK  134  A    between atoms: _314  and  _316
REMARK  135  A    between atoms: _316  and  _317
REMARK  136  A    between atoms: _316  and  _319
REMARK  137  A    between atoms: _322  and  _324
REMARK  138  A    between atoms: _324  and  _325
REMARK  139  A    between atoms: _327  and  _329
REMARK  140  A    between atoms: _329  and  _330
REMARK  141  A    between atoms: _332  and  _334
REMARK  142  A    between atoms: _334  and  _335
REMARK  143  A    between atoms: _334  and  _337
REMARK  144  A    between atoms: _337  and  _338
REMARK  145  A    between atoms: _341  and  _343
REMARK  146  A    between atoms: _343  and  _344
REMARK  147  A    between atoms: _347  and  _349
REMARK  148  A    between atoms: _349  and  _350
REMARK  149  A    between atoms: _349  and  _352
REMARK  150  A    between atoms: _355  and  _357
REMARK  151  A    between atoms: _357  and  _358
REMARK  152  A    between atoms: _360  and  _362
REMARK  153  A    between atoms: _362  and  _363
REMARK  154  A    between atoms: _362  and  _365
REMARK  155  A    between atoms: _365  and  _366
REMARK  156  A    between atoms: _366  and  _367
REMARK  157  A    between atoms: _370  and  _372
REMARK  158  A    between atoms: _372  and  _373
REMARK  159  A    between atoms: _372  and  _375
REMARK  160  A    between atoms: _375  and  _376
REMARK  161  A    between atoms: _376  and  _377
REMARK  162  A    between atoms: _379  and  _381
REMARK  163  A    between atoms: _381  and  _382
REMARK  164  A    between atoms: _381  and  _384
REMARK  165  A    between atoms: _384  and  _385
REMARK  166  A    between atoms: _390  and  _391
REMARK  167  A    between atoms: _393  and  _395
REMARK  168  A    between atoms: _395  and  _396
REMARK  169  A    between atoms: _395  and  _398
REMARK  170  A    between atoms: _398  and  _399
REMARK  171  A    between atoms: _402  and  _404
REMARK  172  A    between atoms: _404  and  _405
REMARK  173  A    between atoms: _404  and  _407
REMARK  174  A    between atoms: _407  and  _408
REMARK  175  A    between atoms: _408  and  _409
REMARK  176  A    between atoms: _411  and  _413
REMARK  177  A    between atoms: _413  and  _414
REMARK  178  A    between atoms: _416  and  _418
REMARK  179  A    between atoms: _418  and  _419
REMARK  180  A    between atoms: _418  and  _421
REMARK  181  A    between atoms: _424  and  _426
REMARK  182  A    between atoms: _426  and  _427
REMARK  183  A    between atoms: _429  and  _431
REMARK  184  A    between atoms: _431  and  _432
REMARK  185  A    between atoms: _431  and  _434
REMARK  186  A    between atoms: _434  and  _435
REMARK  187  A    between atoms: _441  and  _443
REMARK  188  A    between atoms: _443  and  _444
REMARK  189  A    between atoms: _443  and  _446
REMARK  190  A    between atoms: _446  and  _447
REMARK  191  A    between atoms: _450  and  _452
REMARK  192  A    between atoms: _452  and  _453
REMARK  193  A    between atoms: _452  and  _455
REMARK  194  A    between atoms: _457  and  _459
REMARK  195  A    between atoms: _459  and  _460
REMARK  196  A    between atoms: _459  and  _462
REMARK  197  A    between atoms: _465  and  _467
REMARK  198  A    between atoms: _467  and  _468
REMARK  199  A    between atoms: _467  and  _470
REMARK  200  A    between atoms: _470  and  _471
REMARK  201  A    between atoms: _474  and  _476
REMARK  202  A    between atoms: _476  and  _477
REMARK  203  A    between atoms: _476  and  _479
REMARK  204  A    between atoms: _479  and  _480
REMARK  205  A    between atoms: _480  and  _481
REMARK  206  A    between atoms: _481  and  _482
REMARK                            x       y       z     vdW  Elec       q    Type
REMARK                         _______ _______ _______ _____ _____    ______ ____
ROOT
ATOM      1  O   HOH     1      15.032  16.604  15.580  0.00  0.00    +0.000 OA
ENDROOT
TORSDOF 0
REMARK  Name = ../refined-set-2016/3gc4/3gc4_pocket.pdb
REMARK  206 active torsions:
REMARK  status: ('A' for Active; 'I' for Inactive)
REMARK    1  A    between atoms: _1  and  _3
REMARK    2  A    between atoms: _3  and  _4
REMARK    3  A    between atoms: _3  and  _6
REMARK    4  A    between atoms: _6  and  _7
REMARK    5  A    between atoms: _7  and  _8
REMARK    6  A    between atoms: _10  and  _12
REMARK    7  A    between atoms: _12  and  _13
REMARK    8  A    between atoms: _12  and  _15
REMARK    9  A    between atoms: _18  and  _20
REMARK   10  A    between atoms: _20  and  _21
REMARK   11  A    between atoms: _23  and  _25
REMARK   12  A    between atoms: _25  and  _26
REMARK   13  A    between atoms: _25  and  _28
REMARK   14  A    between atoms: _28  and  _29
REMARK   15  A    between atoms: _32  and  _34
REMARK   16  A    between atoms: _34  and  _35
REMARK   17  A    between atoms: _34  and  _37
REMARK   18  A    between atoms: _37  and  _38
REMARK   19  A    between atoms: _38  and  _39
REMARK   20  A    between atoms: _39  and  _40
REMARK   21  A    between atoms: _40  and  _41
REMARK   22  A    between atoms: _45  and  _47
REMARK   23  A    between atoms: _47  and  _48
REMARK   24  A    between atoms: _47  and  _50
REMARK   25  A    between atoms: _50  and  _51
REMARK   26  A    between atoms: _54  and  _56
REMARK   27  A    between atoms: _56  and  _57
REMARK   28  A    between atoms: _59  and  _61
REMARK   29  A    between atoms: _61  and  _62
REMARK   30  A    between atoms: _61  and  _64
REMARK   31  A    between atoms: _64  and  _65
REMARK   32  A    between atoms: _70  and  _72
REMARK   33  A    between atoms: _72  and  _73
REMARK   34  A    between atoms: _72  and  _75
REMARK   35  A    between atoms: _75  and  _76
REMARK   36  A    between atoms: _79  and  _81
REMARK   37  A    between atoms: _81  and  _82
REMARK   38  A    between atoms: _81  and  _84
REMARK   39  A    between atoms: _84  and  _85
REMARK   40  A    between atoms: _90  and  _91
REMARK   41  A    between atoms: _93  and  _95
REMARK   42  A    between atoms: _95  and  _96
REMARK   43  A    between atoms: _95  and  _98
REMARK   44  A    between atoms: _98  and  _99
REMARK   45  A    between atoms: _104  and  _106
REMARK   46  A    between atoms: _106  and  _107
REMARK   47  A    between atoms: _106  and  _109
REMARK   48  A    between atoms: _109  and  _110
REMARK   49  A    between atoms: _113  and  _115
REMARK   50  A    between atoms: _115  and  _116
REMARK   51  A    between atoms: _115  and  _118
REMARK   52  A    between atoms: _118  and  _119
REMARK   53  A    between atoms: _122  and  _124
REMARK   54  A    between atoms: _124  and  _125
REMARK   55  A    between atoms: _124  and  _127
REMARK   56  A    between atoms: _127  and  _128
REMARK   57  A    between atoms: _131  and  _133
REMARK   58  A    between atoms: _133  and  _134
REMARK   59  A    between atoms: _133  and  _136
REMARK   60  A    between atoms: _136  and  _137
REMARK   61  A    between atoms: _139  and  _141
REMARK   62  A    between atoms: _141  and  _142
REMARK   63  A    between atoms: _144  and  _146
REMARK   64  A    between atoms: _146  and  _147
REMARK   65  A    between atoms: _149  and  _151
REMARK   66  A    between atoms: _151  and  _152
REMARK   67  A    between atoms: _151  and  _154
REMARK   68  A    between atoms: _154  and  _155
REMARK   69  A    between atoms: _160  and  _161
REMARK   70  A    between atoms: _163  and  _165
REMARK   71  A    between atoms: _165  and  _166
REMARK   72  A    between atoms: _165  and  _168
REMARK   73  A    between atoms: _168  and  _169
REMARK   74  A    between atoms: _169  and  _170
REMARK   75  A    between atoms: _175  and  _177
REMARK   76  A    between atoms: _177  and  _178
REMARK   77  A    between atoms: _177  and  _180
REMARK   78  A    between atoms: _180  and  _181
REMARK   79  A    between atoms: _181  and  _182
REMARK   80  A    between atoms: _184  and  _186
REMARK   81  A    between atoms: _186  and  _187
REMARK   82  A    between atoms: _190  and  _192
REMARK   83  A    between atoms: _192  and  _193
REMARK   84  A    between atoms: _192  and  _195
REMARK   85  A    between atoms: _195  and  _196
REMARK   86  A    between atoms: _202  and  _204
REMARK   87  A    between atoms: _204  and  _205
REMARK   88  A    between atoms: _204  and  _207
REMARK   89  A    between atoms: _207  and  _208
REMARK   90  A    between atoms: _211  and  _213
REMARK   91  A    between atoms: _213  and  _214
REMARK   92  A    between atoms: _213  and  _216
REMARK   93  A    between atoms: _216  and  _217
REMARK   94  A    between atoms: _217  and  _218
REMARK   95  A    between atoms: _221  and  _223
REMARK   96  A    between atoms: _223  and  _224
REMARK   97  A    between atoms: _223  and  _226
REMARK   98  A    between atoms: _228  and  _230
REMARK   99  A    between atoms: _230  and  _231
REMARK  100  A    between atoms: _230  and  _233
REMARK  101  A    between atoms: _233  and  _234
REMARK  102  A    between atoms: _237  and  _239
REMARK  103  A    between atoms: _239  and  _240
REMARK  104  A    between atoms: _239  and  _242
REMARK  105  A    between atoms: _242  and  _243
REMARK  106  A    between atoms: _245  and  _247
REMARK  107  A    between atoms: _247  and  _248
REMARK  108  A    between atoms: _247  and  _250
REMARK  109  A    between atoms: _250  and  _251
REMARK  110  A    between atoms: _254  and  _256
REMARK  111  A    between atoms: _256  and  _257
REMARK  112  A    between atoms: _256  and  _259
REMARK  113  A    between atoms: _259  and  _260
REMARK  114  A    between atoms: _260  and  _261
REMARK  115  A    between atoms: _266  and  _268
REMARK  116  A    between atoms: _268  and  _269
REMARK  117  A    between atoms: _268  and  _271
REMARK  118  A    between atoms: _271  and  _272
REMARK  119  A    between atoms: _272  and  _273
REMARK  120  A    between atoms: _278  and  _280
REMARK  121  A    between atoms: _280  and  _281
REMARK  122  A    between atoms: _283  and  _285
REMARK  123  A    between atoms: _285  and  _286
REMARK  124  A    between atoms: _285  and  _288
REMARK  125  A    between atoms: _288  and  _289
REMARK  126  A    between atoms: _291  and  _293
REMARK  127  A    between atoms: _293  and  _294
REMARK  128  A    between atoms: _293  and  _296
REMARK  129  A    between atoms: _296  and  _297
REMARK  130  A    between atoms: _297  and  _298
REMARK  131  A    between atoms: _298  and  _299
REMARK  132  A    between atoms: _308  and  _310
REMARK  133  A    between atoms: _310  and  _311
REMARK  134  A    between atoms: _314  and  _316
REMARK  135  A    between atoms: _316  and  _317
REMARK  136  A    between atoms: _316  and  _319
REMARK  137  A    between atoms: _322  and  _324
REMARK  138  A    between atoms: _324  and  _325
REMARK  139  A    between atoms: _327  and  _329
REMARK  140  A    between atoms: _329  and  _330
REMARK  141  A    between atoms: _332  and  _334
REMARK  142  A    between atoms: _334  and  _335
REMARK  143  A    between atoms: _334  and  _337
REMARK  144  A    between atoms: _337  and  _338
REMARK  145  A    between atoms: _341  and  _343
REMARK  146  A    between atoms: _343  and  _344
REMARK  147  A    between atoms: _347  and  _349
REMARK  148  A    between atoms: _349  and  _350
REMARK  149  A    between atoms: _349  and  _352
REMARK  150  A    between atoms: _355  and  _357
REMARK  151  A    between atoms: _357  and  _358
REMARK  152  A    between atoms: _360  and  _362
REMARK  153  A    between atoms: _362  and  _363
REMARK  154  A    between atoms: _362  and  _365
REMARK  155  A    between atoms: _365  and  _366
REMARK  156  A    between atoms: _366  and  _367
REMARK  157  A    between atoms: _370  and  _372
REMARK  158  A    between atoms: _372  and  _373
REMARK  159  A    between atoms: _372  and  _375
REMARK  160  A    between atoms: _375  and  _376
REMARK  161  A    between atoms: _376  and  _377
REMARK  162  A    between atoms: _379  and  _381
REMARK  163  A    between atoms: _381  and  _382
REMARK  164  A    between atoms: _381  and  _384
REMARK  165  A    between atoms: _384  and  _385
REMARK  166  A    between atoms: _390  and  _391
REMARK  167  A    between atoms: _393  and  _395
REMARK  168  A    between atoms: _395  and  _396
REMARK  169  A    between atoms: _395  and  _398
REMARK  170  A    between atoms: _398  and  _399
REMARK  171  A    between atoms: _402  and  _404
REMARK  172  A    between atoms: _404  and  _405
REMARK  173  A    between atoms: _404  and  _407
REMARK  174  A    between atoms: _407  and  _408
REMARK  175  A    between atoms: _408  and  _409
REMARK  176  A    between atoms: _411  and  _413
REMARK  177  A    between atoms: _413  and  _414
REMARK  178  A    between atoms: _416  and  _418
REMARK  179  A    between atoms: _418  and  _419
REMARK  180  A    between atoms: _418  and  _421
REMARK  181  A    between atoms: _424  and  _426
REMARK  182  A    between atoms: _426  and  _427
REMARK  183  A    between atoms: _429  and  _431
REMARK  184  A    between atoms: _431  and  _432
REMARK  185  A    between atoms: _431  and  _434
REMARK  186  A    between atoms: _434  and  _435
REMARK  187  A    between atoms: _441  and  _443
REMARK  188  A    between atoms: _443  and  _444
REMARK  189  A    between atoms: _443  and  _446
REMARK  190  A    between atoms: _446  and  _447
REMARK  191  A    between atoms: _450  and  _452
REMARK  192  A    between atoms: _452  and  _453
REMARK  193  A    between atoms: _452  and  _455
REMARK  194  A    between atoms: _457  and  _459
REMARK  195  A    between atoms: _459  and  _460
REMARK  196  A    between atoms: _459  and  _462
REMARK  197  A    between atoms: _465  and  _467
REMARK  198  A    between atoms: _467  and  _468
REMARK  199  A    between atoms: _467  and  _470
REMARK  200  A    between atoms: _470  and  _471
REMARK  201  A    between atoms: _474  and  _476
REMARK  202  A    between atoms: _476  and  _477
REMARK  203  A    between atoms: _476  and  _479
REMARK  204  A    between atoms: _479  and  _480
REMARK  205  A    between atoms: _480  and  _481
REMARK  206  A    between atoms: _481  and  _482
REMARK                            x       y       z     vdW  Elec       q    Type
REMARK                         _______ _______ _______ _____ _____    ______ ____
ROOT
ATOM      1  O   HOH     1      23.995  20.206  25.493  0.00  0.00    +0.000 OA
ENDROOT
TORSDOF 0
REMARK  Name = ../refined-set-2016/3gc4/3gc4_pocket.pdb
REMARK  206 active torsions:
REMARK  status: ('A' for Active; 'I' for Inactive)
REMARK    1  A    between atoms: _1  and  _3
REMARK    2  A    between atoms: _3  and  _4
REMARK    3  A    between atoms: _3  and  _6
REMARK    4  A    between atoms: _6  and  _7
REMARK    5  A    between atoms: _7  and  _8
REMARK    6  A    between atoms: _10  and  _12
REMARK    7  A    between atoms: _12  and  _13
REMARK    8  A    between atoms: _12  and  _15
REMARK    9  A    between atoms: _18  and  _20
REMARK   10  A    between atoms: _20  and  _21
REMARK   11  A    between atoms: _23  and  _25
REMARK   12  A    between atoms: _25  and  _26
REMARK   13  A    between atoms: _25  and  _28
REMARK   14  A    between atoms: _28  and  _29
REMARK   15  A    between atoms: _32  and  _34
REMARK   16  A    between atoms: _34  and  _35
REMARK   17  A    between atoms: _34  and  _37
REMARK   18  A    between atoms: _37  and  _38
REMARK   19  A    between atoms: _38  and  _39
REMARK   20  A    between atoms: _39  and  _40
REMARK   21  A    between atoms: _40  and  _41
REMARK   22  A    between atoms: _45  and  _47
REMARK   23  A    between atoms: _47  and  _48
REMARK   24  A    between atoms: _47  and  _50
REMARK   25  A    between atoms: _50  and  _51
REMARK   26  A    between atoms: _54  and  _56
REMARK   27  A    between atoms: _56  and  _57
REMARK   28  A    between atoms: _59  and  _61
REMARK   29  A    between atoms: _61  and  _62
REMARK   30  A    between atoms: _61  and  _64
REMARK   31  A    between atoms: _64  and  _65
REMARK   32  A    between atoms: _70  and  _72
REMARK   33  A    between atoms: _72  and  _73
REMARK   34  A    between atoms: _72  and  _75
REMARK   35  A    between atoms: _75  and  _76
REMARK   36  A    between atoms: _79  and  _81
REMARK   37  A    between atoms: _81  and  _82
REMARK   38  A    between atoms: _81  and  _84
REMARK   39  A    between atoms: _84  and  _85
REMARK   40  A    between atoms: _90  and  _91
REMARK   41  A    between atoms: _93  and  _95
REMARK   42  A    between atoms: _95  and  _96
REMARK   43  A    between atoms: _95  and  _98
REMARK   44  A    between atoms: _98  and  _99
REMARK   45  A    between atoms: _104  and  _106
REMARK   46  A    between atoms: _106  and  _107
REMARK   47  A    between atoms: _106  and  _109
REMARK   48  A    between atoms: _109  and  _110
REMARK   49  A    between atoms: _113  and  _115
REMARK   50  A    between atoms: _115  and  _116
REMARK   51  A    between atoms: _115  and  _118
REMARK   52  A    between atoms: _118  and  _119
REMARK   53  A    between atoms: _122  and  _124
REMARK   54  A    between atoms: _124  and  _125
REMARK   55  A    between atoms: _124  and  _127
REMARK   56  A    between atoms: _127  and  _128
REMARK   57  A    between atoms: _131  and  _133
REMARK   58  A    between atoms: _133  and  _134
REMARK   59  A    between atoms: _133  and  _136
REMARK   60  A    between atoms: _136  and  _137
REMARK   61  A    between atoms: _139  and  _141
REMARK   62  A    between atoms: _141  and  _142
REMARK   63  A    between atoms: _144  and  _146
REMARK   64  A    between atoms: _146  and  _147
REMARK   65  A    between atoms: _149  and  _151
REMARK   66  A    between atoms: _151  and  _152
REMARK   67  A    between atoms: _151  and  _154
REMARK   68  A    between atoms: _154  and  _155
REMARK   69  A    between atoms: _160  and  _161
REMARK   70  A    between atoms: _163  and  _165
REMARK   71  A    between atoms: _165  and  _166
REMARK   72  A    between atoms: _165  and  _168
REMARK   73  A    between atoms: _168  and  _169
REMARK   74  A    between atoms: _169  and  _170
REMARK   75  A    between atoms: _175  and  _177
REMARK   76  A    between atoms: _177  and  _178
REMARK   77  A    between atoms: _177  and  _180
REMARK   78  A    between atoms: _180  and  _181
REMARK   79  A    between atoms: _181  and  _182
REMARK   80  A    between atoms: _184  and  _186
REMARK   81  A    between atoms: _186  and  _187
REMARK   82  A    between atoms: _190  and  _192
REMARK   83  A    between atoms: _192  and  _193
REMARK   84  A    between atoms: _192  and  _195
REMARK   85  A    between atoms: _195  and  _196
REMARK   86  A    between atoms: _202  and  _204
REMARK   87  A    between atoms: _204  and  _205
REMARK   88  A    between atoms: _204  and  _207
REMARK   89  A    between atoms: _207  and  _208
REMARK   90  A    between atoms: _211  and  _213
REMARK   91  A    between atoms: _213  and  _214
REMARK   92  A    between atoms: _213  and  _216
REMARK   93  A    between atoms: _216  and  _217
REMARK   94  A    between atoms: _217  and  _218
REMARK   95  A    between atoms: _221  and  _223
REMARK   96  A    between atoms: _223  and  _224
REMARK   97  A    between atoms: _223  and  _226
REMARK   98  A    between atoms: _228  and  _230
REMARK   99  A    between atoms: _230  and  _231
REMARK  100  A    between atoms: _230  and  _233
REMARK  101  A    between atoms: _233  and  _234
REMARK  102  A    between atoms: _237  and  _239
REMARK  103  A    between atoms: _239  and  _240
REMARK  104  A    between atoms: _239  and  _242
REMARK  105  A    between atoms: _242  and  _243
REMARK  106  A    between atoms: _245  and  _247
REMARK  107  A    between atoms: _247  and  _248
REMARK  108  A    between atoms: _247  and  _250
REMARK  109  A    between atoms: _250  and  _251
REMARK  110  A    between atoms: _254  and  _256
REMARK  111  A    between atoms: _256  and  _257
REMARK  112  A    between atoms: _256  and  _259
REMARK  113  A    between atoms: _259  and  _260
REMARK  114  A    between atoms: _260  and  _261
REMARK  115  A    between atoms: _266  and  _268
REMARK  116  A    between atoms: _268  and  _269
REMARK  117  A    between atoms: _268  and  _271
REMARK  118  A    between atoms: _271  and  _272
REMARK  119  A    between atoms: _272  and  _273
REMARK  120  A    between atoms: _278  and  _280
REMARK  121  A    between atoms: _280  and  _281
REMARK  122  A    between atoms: _283  and  _285
REMARK  123  A    between atoms: _285  and  _286
REMARK  124  A    between atoms: _285  and  _288
REMARK  125  A    between atoms: _288  and  _289
REMARK  126  A    between atoms: _291  and  _293
REMARK  127  A    between atoms: _293  and  _294
REMARK  128  A    between atoms: _293  and  _296
REMARK  129  A    between atoms: _296  and  _297
REMARK  130  A    between atoms: _297  and  _298
REMARK  131  A    between atoms: _298  and  _299
REMARK  132  A    between atoms: _308  and  _310
REMARK  133  A    between atoms: _310  and  _311
REMARK  134  A    between atoms: _314  and  _316
REMARK  135  A    between atoms: _316  and  _317
REMARK  136  A    between atoms: _316  and  _319
REMARK  137  A    between atoms: _322  and  _324
REMARK  138  A    between atoms: _324  and  _325
REMARK  139  A    between atoms: _327  and  _329
REMARK  140  A    between atoms: _329  and  _330
REMARK  141  A    between atoms: _332  and  _334
REMARK  142  A    between atoms: _334  and  _335
REMARK  143  A    between atoms: _334  and  _337
REMARK  144  A    between atoms: _337  and  _338
REMARK  145  A    between atoms: _341  and  _343
REMARK  146  A    between atoms: _343  and  _344
REMARK  147  A    between atoms: _347  and  _349
REMARK  148  A    between atoms: _349  and  _350
REMARK  149  A    between atoms: _349  and  _352
REMARK  150  A    between atoms: _355  and  _357
REMARK  151  A    between atoms: _357  and  _358
REMARK  152  A    between atoms: _360  and  _362
REMARK  153  A    between atoms: _362  and  _363
REMARK  154  A    between atoms: _362  and  _365
REMARK  155  A    between atoms: _365  and  _366
REMARK  156  A    between atoms: _366  and  _367
REMARK  157  A    between atoms: _370  and  _372
REMARK  158  A    between atoms: _372  and  _373
REMARK  159  A    between atoms: _372  and  _375
REMARK  160  A    between atoms: _375  and  _376
REMARK  161  A    between atoms: _376  and  _377
REMARK  162  A    between atoms: _379  and  _381
REMARK  163  A    between atoms: _381  and  _382
REMARK  164  A    between atoms: _381  and  _384
REMARK  165  A    between atoms: _384  and  _385
REMARK  166  A    between atoms: _390  and  _391
REMARK  167  A    between atoms: _393  and  _395
REMARK  168  A    between atoms: _395  and  _396
REMARK  169  A    between atoms: _395  and  _398
REMARK  170  A    between atoms: _398  and  _399
REMARK  171  A    between atoms: _402  and  _404
REMARK  172  A    between atoms: _404  and  _405
REMARK  173  A    between atoms: _404  and  _407
REMARK  174  A    between atoms: _407  and  _408
REMARK  175  A    between atoms: _408  and  _409
REMARK  176  A    between atoms: _411  and  _413
REMARK  177  A    between atoms: _413  and  _414
REMARK  178  A    between atoms: _416  and  _418
REMARK  179  A    between atoms: _418  and  _419
REMARK  180  A    between atoms: _418  and  _421
REMARK  181  A    between atoms: _424  and  _426
REMARK  182  A    between atoms: _426  and  _427
REMARK  183  A    between atoms: _429  and  _431
REMARK  184  A    between atoms: _431  and  _432
REMARK  185  A    between atoms: _431  and  _434
REMARK  186  A    between atoms: _434  and  _435
REMARK  187  A    between atoms: _441  and  _443
REMARK  188  A    between atoms: _443  and  _444
REMARK  189  A    between atoms: _443  and  _446
REMARK  190  A    between atoms: _446  and  _447
REMARK  191  A    between atoms: _450  and  _452
REMARK  192  A    between atoms: _452  and  _453
REMARK  193  A    between atoms: _452  and  _455
REMARK  194  A    between atoms: _457  and  _459
REMARK  195  A    between atoms: _459  and  _460
REMARK  196  A    between atoms: _459  and  _462
REMARK  197  A    between atoms: _465  and  _467
REMARK  198  A    between atoms: _467  and  _468
REMARK  199  A    between atoms: _467  and  _470
REMARK  200  A    between atoms: _470  and  _471
REMARK  201  A    between atoms: _474  and  _476
REMARK  202  A    between atoms: _476  and  _477
REMARK  203  A    between atoms: _476  and  _479
REMARK  204  A    between atoms: _479  and  _480
REMARK  205  A    between atoms: _480  and  _481
REMARK  206  A    between atoms: _481  and  _482
REMARK                            x       y       z     vdW  Elec       q    Type
REMARK                         _______ _______ _______ _____ _____    ______ ____
ROOT
ATOM      1  O   HOH     1      24.992  20.565  12.988  0.00  0.00    +0.000 OA
ENDROOT
TORSDOF 0
REMARK  Name = ../refined-set-2016/3gc4/3gc4_pocket.pdb
REMARK  206 active torsions:
REMARK  status: ('A' for Active; 'I' for Inactive)
REMARK    1  A    between atoms: _1  and  _3
REMARK    2  A    between atoms: _3  and  _4
REMARK    3  A    between atoms: _3  and  _6
REMARK    4  A    between atoms: _6  and  _7
REMARK    5  A    between atoms: _7  and  _8
REMARK    6  A    between atoms: _10  and  _12
REMARK    7  A    between atoms: _12  and  _13
REMARK    8  A    between atoms: _12  and  _15
REMARK    9  A    between atoms: _18  and  _20
REMARK   10  A    between atoms: _20  and  _21
REMARK   11  A    between atoms: _23  and  _25
REMARK   12  A    between atoms: _25  and  _26
REMARK   13  A    between atoms: _25  and  _28
REMARK   14  A    between atoms: _28  and  _29
REMARK   15  A    between atoms: _32  and  _34
REMARK   16  A    between atoms: _34  and  _35
REMARK   17  A    between atoms: _34  and  _37
REMARK   18  A    between atoms: _37  and  _38
REMARK   19  A    between atoms: _38  and  _39
REMARK   20  A    between atoms: _39  and  _40
REMARK   21  A    between atoms: _40  and  _41
REMARK   22  A    between atoms: _45  and  _47
REMARK   23  A    between atoms: _47  and  _48
REMARK   24  A    between atoms: _47  and  _50
REMARK   25  A    between atoms: _50  and  _51
REMARK   26  A    between atoms: _54  and  _56
REMARK   27  A    between atoms: _56  and  _57
REMARK   28  A    between atoms: _59  and  _61
REMARK   29  A    between atoms: _61  and  _62
REMARK   30  A    between atoms: _61  and  _64
REMARK   31  A    between atoms: _64  and  _65
REMARK   32  A    between atoms: _70  and  _72
REMARK   33  A    between atoms: _72  and  _73
REMARK   34  A    between atoms: _72  and  _75
REMARK   35  A    between atoms: _75  and  _76
REMARK   36  A    between atoms: _79  and  _81
REMARK   37  A    between atoms: _81  and  _82
REMARK   38  A    between atoms: _81  and  _84
REMARK   39  A    between atoms: _84  and  _85
REMARK   40  A    between atoms: _90  and  _91
REMARK   41  A    between atoms: _93  and  _95
REMARK   42  A    between atoms: _95  and  _96
REMARK   43  A    between atoms: _95  and  _98
REMARK   44  A    between atoms: _98  and  _99
REMARK   45  A    between atoms: _104  and  _106
REMARK   46  A    between atoms: _106  and  _107
REMARK   47  A    between atoms: _106  and  _109
REMARK   48  A    between atoms: _109  and  _110
REMARK   49  A    between atoms: _113  and  _115
REMARK   50  A    between atoms: _115  and  _116
REMARK   51  A    between atoms: _115  and  _118
REMARK   52  A    between atoms: _118  and  _119
REMARK   53  A    between atoms: _122  and  _124
REMARK   54  A    between atoms: _124  and  _125
REMARK   55  A    between atoms: _124  and  _127
REMARK   56  A    between atoms: _127  and  _128
REMARK   57  A    between atoms: _131  and  _133
REMARK   58  A    between atoms: _133  and  _134
REMARK   59  A    between atoms: _133  and  _136
REMARK   60  A    between atoms: _136  and  _137
REMARK   61  A    between atoms: _139  and  _141
REMARK   62  A    between atoms: _141  and  _142
REMARK   63  A    between atoms: _144  and  _146
REMARK   64  A    between atoms: _146  and  _147
REMARK   65  A    between atoms: _149  and  _151
REMARK   66  A    between atoms: _151  and  _152
REMARK   67  A    between atoms: _151  and  _154
REMARK   68  A    between atoms: _154  and  _155
REMARK   69  A    between atoms: _160  and  _161
REMARK   70  A    between atoms: _163  and  _165
REMARK   71  A    between atoms: _165  and  _166
REMARK   72  A    between atoms: _165  and  _168
REMARK   73  A    between atoms: _168  and  _169
REMARK   74  A    between atoms: _169  and  _170
REMARK   75  A    between atoms: _175  and  _177
REMARK   76  A    between atoms: _177  and  _178
REMARK   77  A    between atoms: _177  and  _180
REMARK   78  A    between atoms: _180  and  _181
REMARK   79  A    between atoms: _181  and  _182
REMARK   80  A    between atoms: _184  and  _186
REMARK   81  A    between atoms: _186  and  _187
REMARK   82  A    between atoms: _190  and  _192
REMARK   83  A    between atoms: _192  and  _193
REMARK   84  A    between atoms: _192  and  _195
REMARK   85  A    between atoms: _195  and  _196
REMARK   86  A    between atoms: _202  and  _204
REMARK   87  A    between atoms: _204  and  _205
REMARK   88  A    between atoms: _204  and  _207
REMARK   89  A    between atoms: _207  and  _208
REMARK   90  A    between atoms: _211  and  _213
REMARK   91  A    between atoms: _213  and  _214
REMARK   92  A    between atoms: _213  and  _216
REMARK   93  A    between atoms: _216  and  _217
REMARK   94  A    between atoms: _217  and  _218
REMARK   95  A    between atoms: _221  and  _223
REMARK   96  A    between atoms: _223  and  _224
REMARK   97  A    between atoms: _223  and  _226
REMARK   98  A    between atoms: _228  and  _230
REMARK   99  A    between atoms: _230  and  _231
REMARK  100  A    between atoms: _230  and  _233
REMARK  101  A    between atoms: _233  and  _234
REMARK  102  A    between atoms: _237  and  _239
REMARK  103  A    between atoms: _239  and  _240
REMARK  104  A    between atoms: _239  and  _242
REMARK  105  A    between atoms: _242  and  _243
REMARK  106  A    between atoms: _245  and  _247
REMARK  107  A    between atoms: _247  and  _248
REMARK  108  A    between atoms: _247  and  _250
REMARK  109  A    between atoms: _250  and  _251
REMARK  110  A    between atoms: _254  and  _256
REMARK  111  A    between atoms: _256  and  _257
REMARK  112  A    between atoms: _256  and  _259
REMARK  113  A    between atoms: _259  and  _260
REMARK  114  A    between atoms: _260  and  _261
REMARK  115  A    between atoms: _266  and  _268
REMARK  116  A    between atoms: _268  and  _269
REMARK  117  A    between atoms: _268  and  _271
REMARK  118  A    between atoms: _271  and  _272
REMARK  119  A    between atoms: _272  and  _273
REMARK  120  A    between atoms: _278  and  _280
REMARK  121  A    between atoms: _280  and  _281
REMARK  122  A    between atoms: _283  and  _285
REMARK  123  A    between atoms: _285  and  _286
REMARK  124  A    between atoms: _285  and  _288
REMARK  125  A    between atoms: _288  and  _289
REMARK  126  A    between atoms: _291  and  _293
REMARK  127  A    between atoms: _293  and  _294
REMARK  128  A    between atoms: _293  and  _296
REMARK  129  A    between atoms: _296  and  _297
REMARK  130  A    between atoms: _297  and  _298
REMARK  131  A    between atoms: _298  and  _299
REMARK  132  A    between atoms: _308  and  _310
REMARK  133  A    between atoms: _310  and  _311
REMARK  134  A    between atoms: _314  and  _316
REMARK  135  A    between atoms: _316  and  _317
REMARK  136  A    between atoms: _316  and  _319
REMARK  137  A    between atoms: _322  and  _324
REMARK  138  A    between atoms: _324  and  _325
REMARK  139  A    between atoms: _327  and  _329
REMARK  140  A    between atoms: _329  and  _330
REMARK  141  A    between atoms: _332  and  _334
REMARK  142  A    between atoms: _334  and  _335
REMARK  143  A    between atoms: _334  and  _337
REMARK  144  A    between atoms: _337  and  _338
REMARK  145  A    between atoms: _341  and  _343
REMARK  146  A    between atoms: _343  and  _344
REMARK  147  A    between atoms: _347  and  _349
REMARK  148  A    between atoms: _349  and  _350
REMARK  149  A    between atoms: _349  and  _352
REMARK  150  A    between atoms: _355  and  _357
REMARK  151  A    between atoms: _357  and  _358
REMARK  152  A    between atoms: _360  and  _362
REMARK  153  A    between atoms: _362  and  _363
REMARK  154  A    between atoms: _362  and  _365
REMARK  155  A    between atoms: _365  and  _366
REMARK  156  A    between atoms: _366  and  _367
REMARK  157  A    between atoms: _370  and  _372
REMARK  158  A    between atoms: _372  and  _373
REMARK  159  A    between atoms: _372  and  _375
REMARK  160  A    between atoms: _375  and  _376
REMARK  161  A    between atoms: _376  and  _377
REMARK  162  A    between atoms: _379  and  _381
REMARK  163  A    between atoms: _381  and  _382
REMARK  164  A    between atoms: _381  and  _384
REMARK  165  A    between atoms: _384  and  _385
REMARK  166  A    between atoms: _390  and  _391
REMARK  167  A    between atoms: _393  and  _395
REMARK  168  A    between atoms: _395  and  _396
REMARK  169  A    between atoms: _395  and  _398
REMARK  170  A    between atoms: _398  and  _399
REMARK  171  A    between atoms: _402  and  _404
REMARK  172  A    between atoms: _404  and  _405
REMARK  173  A    between atoms: _404  and  _407
REMARK  174  A    between atoms: _407  and  _408
REMARK  175  A    between atoms: _408  and  _409
REMARK  176  A    between atoms: _411  and  _413
REMARK  177  A    between atoms: _413  and  _414
REMARK  178  A    between atoms: _416  and  _418
REMARK  179  A    between atoms: _418  and  _419
REMARK  180  A    between atoms: _418  and  _421
REMARK  181  A    between atoms: _424  and  _426
REMARK  182  A    between atoms: _426  and  _427
REMARK  183  A    between atoms: _429  and  _431
REMARK  184  A    between atoms: _431  and  _432
REMARK  185  A    between atoms: _431  and  _434
REMARK  186  A    between atoms: _434  and  _435
REMARK  187  A    between atoms: _441  and  _443
REMARK  188  A    between atoms: _443  and  _444
REMARK  189  A    between atoms: _443  and  _446
REMARK  190  A    between atoms: _446  and  _447
REMARK  191  A    between atoms: _450  and  _452
REMARK  192  A    between atoms: _452  and  _453
REMARK  193  A    between atoms: _452  and  _455
REMARK  194  A    between atoms: _457  and  _459
REMARK  195  A    between atoms: _459  and  _460
REMARK  196  A    between atoms: _459  and  _462
REMARK  197  A    between atoms: _465  and  _467
REMARK  198  A    between atoms: _467  and  _468
REMARK  199  A    between atoms: _467  and  _470
REMARK  200  A    between atoms: _470  and  _471
REMARK  201  A    between atoms: _474  and  _476
REMARK  202  A    between atoms: _476  and  _477
REMARK  203  A    between atoms: _476  and  _479
REMARK  204  A    between atoms: _479  and  _480
REMARK  205  A    between atoms: _480  and  _481
REMARK  206  A    between atoms: _481  and  _482
REMARK                            x       y       z     vdW  Elec       q    Type
REMARK                         _______ _______ _______ _____ _____    ______ ____
ROOT
ATOM      1  O   HOH     1      24.063  21.820  23.161  0.00  0.00    +0.000 OA
ENDROOT
TORSDOF 0
REMARK  Name = ../refined-set-2016/3gc4/3gc4_pocket.pdb
REMARK  206 active torsions:
REMARK  status: ('A' for Active; 'I' for Inactive)
REMARK    1  A    between atoms: _1  and  _3
REMARK    2  A    between atoms: _3  and  _4
REMARK    3  A    between atoms: _3  and  _6
REMARK    4  A    between atoms: _6  and  _7
REMARK    5  A    between atoms: _7  and  _8
REMARK    6  A    between atoms: _10  and  _12
REMARK    7  A    between atoms: _12  and  _13
REMARK    8  A    between atoms: _12  and  _15
REMARK    9  A    between atoms: _18  and  _20
REMARK   10  A    between atoms: _20  and  _21
REMARK   11  A    between atoms: _23  and  _25
REMARK   12  A    between atoms: _25  and  _26
REMARK   13  A    between atoms: _25  and  _28
REMARK   14  A    between atoms: _28  and  _29
REMARK   15  A    between atoms: _32  and  _34
REMARK   16  A    between atoms: _34  and  _35
REMARK   17  A    between atoms: _34  and  _37
REMARK   18  A    between atoms: _37  and  _38
REMARK   19  A    between atoms: _38  and  _39
REMARK   20  A    between atoms: _39  and  _40
REMARK   21  A    between atoms: _40  and  _41
REMARK   22  A    between atoms: _45  and  _47
REMARK   23  A    between atoms: _47  and  _48
REMARK   24  A    between atoms: _47  and  _50
REMARK   25  A    between atoms: _50  and  _51
REMARK   26  A    between atoms: _54  and  _56
REMARK   27  A    between atoms: _56  and  _57
REMARK   28  A    between atoms: _59  and  _61
REMARK   29  A    between atoms: _61  and  _62
REMARK   30  A    between atoms: _61  and  _64
REMARK   31  A    between atoms: _64  and  _65
REMARK   32  A    between atoms: _70  and  _72
REMARK   33  A    between atoms: _72  and  _73
REMARK   34  A    between atoms: _72  and  _75
REMARK   35  A    between atoms: _75  and  _76
REMARK   36  A    between atoms: _79  and  _81
REMARK   37  A    between atoms: _81  and  _82
REMARK   38  A    between atoms: _81  and  _84
REMARK   39  A    between atoms: _84  and  _85
REMARK   40  A    between atoms: _90  and  _91
REMARK   41  A    between atoms: _93  and  _95
REMARK   42  A    between atoms: _95  and  _96
REMARK   43  A    between atoms: _95  and  _98
REMARK   44  A    between atoms: _98  and  _99
REMARK   45  A    between atoms: _104  and  _106
REMARK   46  A    between atoms: _106  and  _107
REMARK   47  A    between atoms: _106  and  _109
REMARK   48  A    between atoms: _109  and  _110
REMARK   49  A    between atoms: _113  and  _115
REMARK   50  A    between atoms: _115  and  _116
REMARK   51  A    between atoms: _115  and  _118
REMARK   52  A    between atoms: _118  and  _119
REMARK   53  A    between atoms: _122  and  _124
REMARK   54  A    between atoms: _124  and  _125
REMARK   55  A    between atoms: _124  and  _127
REMARK   56  A    between atoms: _127  and  _128
REMARK   57  A    between atoms: _131  and  _133
REMARK   58  A    between atoms: _133  and  _134
REMARK   59  A    between atoms: _133  and  _136
REMARK   60  A    between atoms: _136  and  _137
REMARK   61  A    between atoms: _139  and  _141
REMARK   62  A    between atoms: _141  and  _142
REMARK   63  A    between atoms: _144  and  _146
REMARK   64  A    between atoms: _146  and  _147
REMARK   65  A    between atoms: _149  and  _151
REMARK   66  A    between atoms: _151  and  _152
REMARK   67  A    between atoms: _151  and  _154
REMARK   68  A    between atoms: _154  and  _155
REMARK   69  A    between atoms: _160  and  _161
REMARK   70  A    between atoms: _163  and  _165
REMARK   71  A    between atoms: _165  and  _166
REMARK   72  A    between atoms: _165  and  _168
REMARK   73  A    between atoms: _168  and  _169
REMARK   74  A    between atoms: _169  and  _170
REMARK   75  A    between atoms: _175  and  _177
REMARK   76  A    between atoms: _177  and  _178
REMARK   77  A    between atoms: _177  and  _180
REMARK   78  A    between atoms: _180  and  _181
REMARK   79  A    between atoms: _181  and  _182
REMARK   80  A    between atoms: _184  and  _186
REMARK   81  A    between atoms: _186  and  _187
REMARK   82  A    between atoms: _190  and  _192
REMARK   83  A    between atoms: _192  and  _193
REMARK   84  A    between atoms: _192  and  _195
REMARK   85  A    between atoms: _195  and  _196
REMARK   86  A    between atoms: _202  and  _204
REMARK   87  A    between atoms: _204  and  _205
REMARK   88  A    between atoms: _204  and  _207
REMARK   89  A    between atoms: _207  and  _208
REMARK   90  A    between atoms: _211  and  _213
REMARK   91  A    between atoms: _213  and  _214
REMARK   92  A    between atoms: _213  and  _216
REMARK   93  A    between atoms: _216  and  _217
REMARK   94  A    between atoms: _217  and  _218
REMARK   95  A    between atoms: _221  and  _223
REMARK   96  A    between atoms: _223  and  _224
REMARK   97  A    between atoms: _223  and  _226
REMARK   98  A    between atoms: _228  and  _230
REMARK   99  A    between atoms: _230  and  _231
REMARK  100  A    between atoms: _230  and  _233
REMARK  101  A    between atoms: _233  and  _234
REMARK  102  A    between atoms: _237  and  _239
REMARK  103  A    between atoms: _239  and  _240
REMARK  104  A    between atoms: _239  and  _242
REMARK  105  A    between atoms: _242  and  _243
REMARK  106  A    between atoms: _245  and  _247
REMARK  107  A    between atoms: _247  and  _248
REMARK  108  A    between atoms: _247  and  _250
REMARK  109  A    between atoms: _250  and  _251
REMARK  110  A    between atoms: _254  and  _256
REMARK  111  A    between atoms: _256  and  _257
REMARK  112  A    between atoms: _256  and  _259
REMARK  113  A    between atoms: _259  and  _260
REMARK  114  A    between atoms: _260  and  _261
REMARK  115  A    between atoms: _266  and  _268
REMARK  116  A    between atoms: _268  and  _269
REMARK  117  A    between atoms: _268  and  _271
REMARK  118  A    between atoms: _271  and  _272
REMARK  119  A    between atoms: _272  and  _273
REMARK  120  A    between atoms: _278  and  _280
REMARK  121  A    between atoms: _280  and  _281
REMARK  122  A    between atoms: _283  and  _285
REMARK  123  A    between atoms: _285  and  _286
REMARK  124  A    between atoms: _285  and  _288
REMARK  125  A    between atoms: _288  and  _289
REMARK  126  A    between atoms: _291  and  _293
REMARK  127  A    between atoms: _293  and  _294
REMARK  128  A    between atoms: _293  and  _296
REMARK  129  A    between atoms: _296  and  _297
REMARK  130  A    between atoms: _297  and  _298
REMARK  131  A    between atoms: _298  and  _299
REMARK  132  A    between atoms: _308  and  _310
REMARK  133  A    between atoms: _310  and  _311
REMARK  134  A    between atoms: _314  and  _316
REMARK  135  A    between atoms: _316  and  _317
REMARK  136  A    between atoms: _316  and  _319
REMARK  137  A    between atoms: _322  and  _324
REMARK  138  A    between atoms: _324  and  _325
REMARK  139  A    between atoms: _327  and  _329
REMARK  140  A    between atoms: _329  and  _330
REMARK  141  A    between atoms: _332  and  _334
REMARK  142  A    between atoms: _334  and  _335
REMARK  143  A    between atoms: _334  and  _337
REMARK  144  A    between atoms: _337  and  _338
REMARK  145  A    between atoms: _341  and  _343
REMARK  146  A    between atoms: _343  and  _344
REMARK  147  A    between atoms: _347  and  _349
REMARK  148  A    between atoms: _349  and  _350
REMARK  149  A    between atoms: _349  and  _352
REMARK  150  A    between atoms: _355  and  _357
REMARK  151  A    between atoms: _357  and  _358
REMARK  152  A    between atoms: _360  and  _362
REMARK  153  A    between atoms: _362  and  _363
REMARK  154  A    between atoms: _362  and  _365
REMARK  155  A    between atoms: _365  and  _366
REMARK  156  A    between atoms: _366  and  _367
REMARK  157  A    between atoms: _370  and  _372
REMARK  158  A    between atoms: _372  and  _373
REMARK  159  A    between atoms: _372  and  _375
REMARK  160  A    between atoms: _375  and  _376
REMARK  161  A    between atoms: _376  and  _377
REMARK  162  A    between atoms: _379  and  _381
REMARK  163  A    between atoms: _381  and  _382
REMARK  164  A    between atoms: _381  and  _384
REMARK  165  A    between atoms: _384  and  _385
REMARK  166  A    between atoms: _390  and  _391
REMARK  167  A    between atoms: _393  and  _395
REMARK  168  A    between atoms: _395  and  _396
REMARK  169  A    between atoms: _395  and  _398
REMARK  170  A    between atoms: _398  and  _399
REMARK  171  A    between atoms: _402  and  _404
REMARK  172  A    between atoms: _404  and  _405
REMARK  173  A    between atoms: _404  and  _407
REMARK  174  A    between atoms: _407  and  _408
REMARK  175  A    between atoms: _408  and  _409
REMARK  176  A    between atoms: _411  and  _413
REMARK  177  A    between atoms: _413  and  _414
REMARK  178  A    between atoms: _416  and  _418
REMARK  179  A    between atoms: _418  and  _419
REMARK  180  A    between atoms: _418  and  _421
REMARK  181  A    between atoms: _424  and  _426
REMARK  182  A    between atoms: _426  and  _427
REMARK  183  A    between atoms: _429  and  _431
REMARK  184  A    between atoms: _431  and  _432
REMARK  185  A    between atoms: _431  and  _434
REMARK  186  A    between atoms: _434  and  _435
REMARK  187  A    between atoms: _441  and  _443
REMARK  188  A    between atoms: _443  and  _444
REMARK  189  A    between atoms: _443  and  _446
REMARK  190  A    between atoms: _446  and  _447
REMARK  191  A    between atoms: _450  and  _452
REMARK  192  A    between atoms: _452  and  _453
REMARK  193  A    between atoms: _452  and  _455
REMARK  194  A    between atoms: _457  and  _459
REMARK  195  A    between atoms: _459  and  _460
REMARK  196  A    between atoms: _459  and  _462
REMARK  197  A    between atoms: _465  and  _467
REMARK  198  A    between atoms: _467  and  _468
REMARK  199  A    between atoms: _467  and  _470
REMARK  200  A    between atoms: _470  and  _471
REMARK  201  A    between atoms: _474  and  _476
REMARK  202  A    between atoms: _476  and  _477
REMARK  203  A    between atoms: _476  and  _479
REMARK  204  A    between atoms: _479  and  _480
REMARK  205  A    between atoms: _480  and  _481
REMARK  206  A    between atoms: _481  and  _482
REMARK                            x       y       z     vdW  Elec       q    Type
REMARK                         _______ _______ _______ _____ _____    ______ ____
ROOT
ATOM      1  O   HOH     1      16.856  17.850  11.221  0.00  0.00    +0.000 OA
ENDROOT
TORSDOF 0
REMARK  Name = ../refined-set-2016/3gc4/3gc4_pocket.pdb
REMARK  206 active torsions:
REMARK  status: ('A' for Active; 'I' for Inactive)
REMARK    1  A    between atoms: _1  and  _3
REMARK    2  A    between atoms: _3  and  _4
REMARK    3  A    between atoms: _3  and  _6
REMARK    4  A    between atoms: _6  and  _7
REMARK    5  A    between atoms: _7  and  _8
REMARK    6  A    between atoms: _10  and  _12
REMARK    7  A    between atoms: _12  and  _13
REMARK    8  A    between atoms: _12  and  _15
REMARK    9  A    between atoms: _18  and  _20
REMARK   10  A    between atoms: _20  and  _21
REMARK   11  A    between atoms: _23  and  _25
REMARK   12  A    between atoms: _25  and  _26
REMARK   13  A    between atoms: _25  and  _28
REMARK   14  A    between atoms: _28  and  _29
REMARK   15  A    between atoms: _32  and  _34
REMARK   16  A    between atoms: _34  and  _35
REMARK   17  A    between atoms: _34  and  _37
REMARK   18  A    between atoms: _37  and  _38
REMARK   19  A    between atoms: _38  and  _39
REMARK   20  A    between atoms: _39  and  _40
REMARK   21  A    between atoms: _40  and  _41
REMARK   22  A    between atoms: _45  and  _47
REMARK   23  A    between atoms: _47  and  _48
REMARK   24  A    between atoms: _47  and  _50
REMARK   25  A    between atoms: _50  and  _51
REMARK   26  A    between atoms: _54  and  _56
REMARK   27  A    between atoms: _56  and  _57
REMARK   28  A    between atoms: _59  and  _61
REMARK   29  A    between atoms: _61  and  _62
REMARK   30  A    between atoms: _61  and  _64
REMARK   31  A    between atoms: _64  and  _65
REMARK   32  A    between atoms: _70  and  _72
REMARK   33  A    between atoms: _72  and  _73
REMARK   34  A    between atoms: _72  and  _75
REMARK   35  A    between atoms: _75  and  _76
REMARK   36  A    between atoms: _79  and  _81
REMARK   37  A    between atoms: _81  and  _82
REMARK   38  A    between atoms: _81  and  _84
REMARK   39  A    between atoms: _84  and  _85
REMARK   40  A    between atoms: _90  and  _91
REMARK   41  A    between atoms: _93  and  _95
REMARK   42  A    between atoms: _95  and  _96
REMARK   43  A    between atoms: _95  and  _98
REMARK   44  A    between atoms: _98  and  _99
REMARK   45  A    between atoms: _104  and  _106
REMARK   46  A    between atoms: _106  and  _107
REMARK   47  A    between atoms: _106  and  _109
REMARK   48  A    between atoms: _109  and  _110
REMARK   49  A    between atoms: _113  and  _115
REMARK   50  A    between atoms: _115  and  _116
REMARK   51  A    between atoms: _115  and  _118
REMARK   52  A    between atoms: _118  and  _119
REMARK   53  A    between atoms: _122  and  _124
REMARK   54  A    between atoms: _124  and  _125
REMARK   55  A    between atoms: _124  and  _127
REMARK   56  A    between atoms: _127  and  _128
REMARK   57  A    between atoms: _131  and  _133
REMARK   58  A    between atoms: _133  and  _134
REMARK   59  A    between atoms: _133  and  _136
REMARK   60  A    between atoms: _136  and  _137
REMARK   61  A    between atoms: _139  and  _141
REMARK   62  A    between atoms: _141  and  _142
REMARK   63  A    between atoms: _144  and  _146
REMARK   64  A    between atoms: _146  and  _147
REMARK   65  A    between atoms: _149  and  _151
REMARK   66  A    between atoms: _151  and  _152
REMARK   67  A    between atoms: _151  and  _154
REMARK   68  A    between atoms: _154  and  _155
REMARK   69  A    between atoms: _160  and  _161
REMARK   70  A    between atoms: _163  and  _165
REMARK   71  A    between atoms: _165  and  _166
REMARK   72  A    between atoms: _165  and  _168
REMARK   73  A    between atoms: _168  and  _169
REMARK   74  A    between atoms: _169  and  _170
REMARK   75  A    between atoms: _175  and  _177
REMARK   76  A    between atoms: _177  and  _178
REMARK   77  A    between atoms: _177  and  _180
REMARK   78  A    between atoms: _180  and  _181
REMARK   79  A    between atoms: _181  and  _182
REMARK   80  A    between atoms: _184  and  _186
REMARK   81  A    between atoms: _186  and  _187
REMARK   82  A    between atoms: _190  and  _192
REMARK   83  A    between atoms: _192  and  _193
REMARK   84  A    between atoms: _192  and  _195
REMARK   85  A    between atoms: _195  and  _196
REMARK   86  A    between atoms: _202  and  _204
REMARK   87  A    between atoms: _204  and  _205
REMARK   88  A    between atoms: _204  and  _207
REMARK   89  A    between atoms: _207  and  _208
REMARK   90  A    between atoms: _211  and  _213
REMARK   91  A    between atoms: _213  and  _214
REMARK   92  A    between atoms: _213  and  _216
REMARK   93  A    between atoms: _216  and  _217
REMARK   94  A    between atoms: _217  and  _218
REMARK   95  A    between atoms: _221  and  _223
REMARK   96  A    between atoms: _223  and  _224
REMARK   97  A    between atoms: _223  and  _226
REMARK   98  A    between atoms: _228  and  _230
REMARK   99  A    between atoms: _230  and  _231
REMARK  100  A    between atoms: _230  and  _233
REMARK  101  A    between atoms: _233  and  _234
REMARK  102  A    between atoms: _237  and  _239
REMARK  103  A    between atoms: _239  and  _240
REMARK  104  A    between atoms: _239  and  _242
REMARK  105  A    between atoms: _242  and  _243
REMARK  106  A    between atoms: _245  and  _247
REMARK  107  A    between atoms: _247  and  _248
REMARK  108  A    between atoms: _247  and  _250
REMARK  109  A    between atoms: _250  and  _251
REMARK  110  A    between atoms: _254  and  _256
REMARK  111  A    between atoms: _256  and  _257
REMARK  112  A    between atoms: _256  and  _259
REMARK  113  A    between atoms: _259  and  _260
REMARK  114  A    between atoms: _260  and  _261
REMARK  115  A    between atoms: _266  and  _268
REMARK  116  A    between atoms: _268  and  _269
REMARK  117  A    between atoms: _268  and  _271
REMARK  118  A    between atoms: _271  and  _272
REMARK  119  A    between atoms: _272  and  _273
REMARK  120  A    between atoms: _278  and  _280
REMARK  121  A    between atoms: _280  and  _281
REMARK  122  A    between atoms: _283  and  _285
REMARK  123  A    between atoms: _285  and  _286
REMARK  124  A    between atoms: _285  and  _288
REMARK  125  A    between atoms: _288  and  _289
REMARK  126  A    between atoms: _291  and  _293
REMARK  127  A    between atoms: _293  and  _294
REMARK  128  A    between atoms: _293  and  _296
REMARK  129  A    between atoms: _296  and  _297
REMARK  130  A    between atoms: _297  and  _298
REMARK  131  A    between atoms: _298  and  _299
REMARK  132  A    between atoms: _308  and  _310
REMARK  133  A    between atoms: _310  and  _311
REMARK  134  A    between atoms: _314  and  _316
REMARK  135  A    between atoms: _316  and  _317
REMARK  136  A    between atoms: _316  and  _319
REMARK  137  A    between atoms: _322  and  _324
REMARK  138  A    between atoms: _324  and  _325
REMARK  139  A    between atoms: _327  and  _329
REMARK  140  A    between atoms: _329  and  _330
REMARK  141  A    between atoms: _332  and  _334
REMARK  142  A    between atoms: _334  and  _335
REMARK  143  A    between atoms: _334  and  _337
REMARK  144  A    between atoms: _337  and  _338
REMARK  145  A    between atoms: _341  and  _343
REMARK  146  A    between atoms: _343  and  _344
REMARK  147  A    between atoms: _347  and  _349
REMARK  148  A    between atoms: _349  and  _350
REMARK  149  A    between atoms: _349  and  _352
REMARK  150  A    between atoms: _355  and  _357
REMARK  151  A    between atoms: _357  and  _358
REMARK  152  A    between atoms: _360  and  _362
REMARK  153  A    between atoms: _362  and  _363
REMARK  154  A    between atoms: _362  and  _365
REMARK  155  A    between atoms: _365  and  _366
REMARK  156  A    between atoms: _366  and  _367
REMARK  157  A    between atoms: _370  and  _372
REMARK  158  A    between atoms: _372  and  _373
REMARK  159  A    between atoms: _372  and  _375
REMARK  160  A    between atoms: _375  and  _376
REMARK  161  A    between atoms: _376  and  _377
REMARK  162  A    between atoms: _379  and  _381
REMARK  163  A    between atoms: _381  and  _382
REMARK  164  A    between atoms: _381  and  _384
REMARK  165  A    between atoms: _384  and  _385
REMARK  166  A    between atoms: _390  and  _391
REMARK  167  A    between atoms: _393  and  _395
REMARK  168  A    between atoms: _395  and  _396
REMARK  169  A    between atoms: _395  and  _398
REMARK  170  A    between atoms: _398  and  _399
REMARK  171  A    between atoms: _402  and  _404
REMARK  172  A    between atoms: _404  and  _405
REMARK  173  A    between atoms: _404  and  _407
REMARK  174  A    between atoms: _407  and  _408
REMARK  175  A    between atoms: _408  and  _409
REMARK  176  A    between atoms: _411  and  _413
REMARK  177  A    between atoms: _413  and  _414
REMARK  178  A    between atoms: _416  and  _418
REMARK  179  A    between atoms: _418  and  _419
REMARK  180  A    between atoms: _418  and  _421
REMARK  181  A    between atoms: _424  and  _426
REMARK  182  A    between atoms: _426  and  _427
REMARK  183  A    between atoms: _429  and  _431
REMARK  184  A    between atoms: _431  and  _432
REMARK  185  A    between atoms: _431  and  _434
REMARK  186  A    between atoms: _434  and  _435
REMARK  187  A    between atoms: _441  and  _443
REMARK  188  A    between atoms: _443  and  _444
REMARK  189  A    between atoms: _443  and  _446
REMARK  190  A    between atoms: _446  and  _447
REMARK  191  A    between atoms: _450  and  _452
REMARK  192  A    between atoms: _452  and  _453
REMARK  193  A    between atoms: _452  and  _455
REMARK  194  A    between atoms: _457  and  _459
REMARK  195  A    between atoms: _459  and  _460
REMARK  196  A    between atoms: _459  and  _462
REMARK  197  A    between atoms: _465  and  _467
REMARK  198  A    between atoms: _467  and  _468
REMARK  199  A    between atoms: _467  and  _470
REMARK  200  A    between atoms: _470  and  _471
REMARK  201  A    between atoms: _474  and  _476
REMARK  202  A    between atoms: _476  and  _477
REMARK  203  A    between atoms: _476  and  _479
REMARK  204  A    between atoms: _479  and  _480
REMARK  205  A    between atoms: _480  and  _481
REMARK  206  A    between atoms: _481  and  _482
REMARK                            x       y       z     vdW  Elec       q    Type
REMARK                         _______ _______ _______ _____ _____    ______ ____
ROOT
ATOM      1  O   HOH     1      13.943  18.598  14.014  0.00  0.00    +0.000 OA
ENDROOT
TORSDOF 0
REMARK  Name = ../refined-set-2016/3gc4/3gc4_pocket.pdb
REMARK  206 active torsions:
REMARK  status: ('A' for Active; 'I' for Inactive)
REMARK    1  A    between atoms: _1  and  _3
REMARK    2  A    between atoms: _3  and  _4
REMARK    3  A    between atoms: _3  and  _6
REMARK    4  A    between atoms: _6  and  _7
REMARK    5  A    between atoms: _7  and  _8
REMARK    6  A    between atoms: _10  and  _12
REMARK    7  A    between atoms: _12  and  _13
REMARK    8  A    between atoms: _12  and  _15
REMARK    9  A    between atoms: _18  and  _20
REMARK   10  A    between atoms: _20  and  _21
REMARK   11  A    between atoms: _23  and  _25
REMARK   12  A    between atoms: _25  and  _26
REMARK   13  A    between atoms: _25  and  _28
REMARK   14  A    between atoms: _28  and  _29
REMARK   15  A    between atoms: _32  and  _34
REMARK   16  A    between atoms: _34  and  _35
REMARK   17  A    between atoms: _34  and  _37
REMARK   18  A    between atoms: _37  and  _38
REMARK   19  A    between atoms: _38  and  _39
REMARK   20  A    between atoms: _39  and  _40
REMARK   21  A    between atoms: _40  and  _41
REMARK   22  A    between atoms: _45  and  _47
REMARK   23  A    between atoms: _47  and  _48
REMARK   24  A    between atoms: _47  and  _50
REMARK   25  A    between atoms: _50  and  _51
REMARK   26  A    between atoms: _54  and  _56
REMARK   27  A    between atoms: _56  and  _57
REMARK   28  A    between atoms: _59  and  _61
REMARK   29  A    between atoms: _61  and  _62
REMARK   30  A    between atoms: _61  and  _64
REMARK   31  A    between atoms: _64  and  _65
REMARK   32  A    between atoms: _70  and  _72
REMARK   33  A    between atoms: _72  and  _73
REMARK   34  A    between atoms: _72  and  _75
REMARK   35  A    between atoms: _75  and  _76
REMARK   36  A    between atoms: _79  and  _81
REMARK   37  A    between atoms: _81  and  _82
REMARK   38  A    between atoms: _81  and  _84
REMARK   39  A    between atoms: _84  and  _85
REMARK   40  A    between atoms: _90  and  _91
REMARK   41  A    between atoms: _93  and  _95
REMARK   42  A    between atoms: _95  and  _96
REMARK   43  A    between atoms: _95  and  _98
REMARK   44  A    between atoms: _98  and  _99
REMARK   45  A    between atoms: _104  and  _106
REMARK   46  A    between atoms: _106  and  _107
REMARK   47  A    between atoms: _106  and  _109
REMARK   48  A    between atoms: _109  and  _110
REMARK   49  A    between atoms: _113  and  _115
REMARK   50  A    between atoms: _115  and  _116
REMARK   51  A    between atoms: _115  and  _118
REMARK   52  A    between atoms: _118  and  _119
REMARK   53  A    between atoms: _122  and  _124
REMARK   54  A    between atoms: _124  and  _125
REMARK   55  A    between atoms: _124  and  _127
REMARK   56  A    between atoms: _127  and  _128
REMARK   57  A    between atoms: _131  and  _133
REMARK   58  A    between atoms: _133  and  _134
REMARK   59  A    between atoms: _133  and  _136
REMARK   60  A    between atoms: _136  and  _137
REMARK   61  A    between atoms: _139  and  _141
REMARK   62  A    between atoms: _141  and  _142
REMARK   63  A    between atoms: _144  and  _146
REMARK   64  A    between atoms: _146  and  _147
REMARK   65  A    between atoms: _149  and  _151
REMARK   66  A    between atoms: _151  and  _152
REMARK   67  A    between atoms: _151  and  _154
REMARK   68  A    between atoms: _154  and  _155
REMARK   69  A    between atoms: _160  and  _161
REMARK   70  A    between atoms: _163  and  _165
REMARK   71  A    between atoms: _165  and  _166
REMARK   72  A    between atoms: _165  and  _168
REMARK   73  A    between atoms: _168  and  _169
REMARK   74  A    between atoms: _169  and  _170
REMARK   75  A    between atoms: _175  and  _177
REMARK   76  A    between atoms: _177  and  _178
REMARK   77  A    between atoms: _177  and  _180
REMARK   78  A    between atoms: _180  and  _181
REMARK   79  A    between atoms: _181  and  _182
REMARK   80  A    between atoms: _184  and  _186
REMARK   81  A    between atoms: _186  and  _187
REMARK   82  A    between atoms: _190  and  _192
REMARK   83  A    between atoms: _192  and  _193
REMARK   84  A    between atoms: _192  and  _195
REMARK   85  A    between atoms: _195  and  _196
REMARK   86  A    between atoms: _202  and  _204
REMARK   87  A    between atoms: _204  and  _205
REMARK   88  A    between atoms: _204  and  _207
REMARK   89  A    between atoms: _207  and  _208
REMARK   90  A    between atoms: _211  and  _213
REMARK   91  A    between atoms: _213  and  _214
REMARK   92  A    between atoms: _213  and  _216
REMARK   93  A    between atoms: _216  and  _217
REMARK   94  A    between atoms: _217  and  _218
REMARK   95  A    between atoms: _221  and  _223
REMARK   96  A    between atoms: _223  and  _224
REMARK   97  A    between atoms: _223  and  _226
REMARK   98  A    between atoms: _228  and  _230
REMARK   99  A    between atoms: _230  and  _231
REMARK  100  A    between atoms: _230  and  _233
REMARK  101  A    between atoms: _233  and  _234
REMARK  102  A    between atoms: _237  and  _239
REMARK  103  A    between atoms: _239  and  _240
REMARK  104  A    between atoms: _239  and  _242
REMARK  105  A    between atoms: _242  and  _243
REMARK  106  A    between atoms: _245  and  _247
REMARK  107  A    between atoms: _247  and  _248
REMARK  108  A    between atoms: _247  and  _250
REMARK  109  A    between atoms: _250  and  _251
REMARK  110  A    between atoms: _254  and  _256
REMARK  111  A    between atoms: _256  and  _257
REMARK  112  A    between atoms: _256  and  _259
REMARK  113  A    between atoms: _259  and  _260
REMARK  114  A    between atoms: _260  and  _261
REMARK  115  A    between atoms: _266  and  _268
REMARK  116  A    between atoms: _268  and  _269
REMARK  117  A    between atoms: _268  and  _271
REMARK  118  A    between atoms: _271  and  _272
REMARK  119  A    between atoms: _272  and  _273
REMARK  120  A    between atoms: _278  and  _280
REMARK  121  A    between atoms: _280  and  _281
REMARK  122  A    between atoms: _283  and  _285
REMARK  123  A    between atoms: _285  and  _286
REMARK  124  A    between atoms: _285  and  _288
REMARK  125  A    between atoms: _288  and  _289
REMARK  126  A    between atoms: _291  and  _293
REMARK  127  A    between atoms: _293  and  _294
REMARK  128  A    between atoms: _293  and  _296
REMARK  129  A    between atoms: _296  and  _297
REMARK  130  A    between atoms: _297  and  _298
REMARK  131  A    between atoms: _298  and  _299
REMARK  132  A    between atoms: _308  and  _310
REMARK  133  A    between atoms: _310  and  _311
REMARK  134  A    between atoms: _314  and  _316
REMARK  135  A    between atoms: _316  and  _317
REMARK  136  A    between atoms: _316  and  _319
REMARK  137  A    between atoms: _322  and  _324
REMARK  138  A    between atoms: _324  and  _325
REMARK  139  A    between atoms: _327  and  _329
REMARK  140  A    between atoms: _329  and  _330
REMARK  141  A    between atoms: _332  and  _334
REMARK  142  A    between atoms: _334  and  _335
REMARK  143  A    between atoms: _334  and  _337
REMARK  144  A    between atoms: _337  and  _338
REMARK  145  A    between atoms: _341  and  _343
REMARK  146  A    between atoms: _343  and  _344
REMARK  147  A    between atoms: _347  and  _349
REMARK  148  A    between atoms: _349  and  _350
REMARK  149  A    between atoms: _349  and  _352
REMARK  150  A    between atoms: _355  and  _357
REMARK  151  A    between atoms: _357  and  _358
REMARK  152  A    between atoms: _360  and  _362
REMARK  153  A    between atoms: _362  and  _363
REMARK  154  A    between atoms: _362  and  _365
REMARK  155  A    between atoms: _365  and  _366
REMARK  156  A    between atoms: _366  and  _367
REMARK  157  A    between atoms: _370  and  _372
REMARK  158  A    between atoms: _372  and  _373
REMARK  159  A    between atoms: _372  and  _375
REMARK  160  A    between atoms: _375  and  _376
REMARK  161  A    between atoms: _376  and  _377
REMARK  162  A    between atoms: _379  and  _381
REMARK  163  A    between atoms: _381  and  _382
REMARK  164  A    between atoms: _381  and  _384
REMARK  165  A    between atoms: _384  and  _385
REMARK  166  A    between atoms: _390  and  _391
REMARK  167  A    between atoms: _393  and  _395
REMARK  168  A    between atoms: _395  and  _396
REMARK  169  A    between atoms: _395  and  _398
REMARK  170  A    between atoms: _398  and  _399
REMARK  171  A    between atoms: _402  and  _404
REMARK  172  A    between atoms: _404  and  _405
REMARK  173  A    between atoms: _404  and  _407
REMARK  174  A    between atoms: _407  and  _408
REMARK  175  A    between atoms: _408  and  _409
REMARK  176  A    between atoms: _411  and  _413
REMARK  177  A    between atoms: _413  and  _414
REMARK  178  A    between atoms: _416  and  _418
REMARK  179  A    between atoms: _418  and  _419
REMARK  180  A    between atoms: _418  and  _421
REMARK  181  A    between atoms: _424  and  _426
REMARK  182  A    between atoms: _426  and  _427
REMARK  183  A    between atoms: _429  and  _431
REMARK  184  A    between atoms: _431  and  _432
REMARK  185  A    between atoms: _431  and  _434
REMARK  186  A    between atoms: _434  and  _435
REMARK  187  A    between atoms: _441  and  _443
REMARK  188  A    between atoms: _443  and  _444
REMARK  189  A    between atoms: _443  and  _446
REMARK  190  A    between atoms: _446  and  _447
REMARK  191  A    between atoms: _450  and  _452
REMARK  192  A    between atoms: _452  and  _453
REMARK  193  A    between atoms: _452  and  _455
REMARK  194  A    between atoms: _457  and  _459
REMARK  195  A    between atoms: _459  and  _460
REMARK  196  A    between atoms: _459  and  _462
REMARK  197  A    between atoms: _465  and  _467
REMARK  198  A    between atoms: _467  and  _468
REMARK  199  A    between atoms: _467  and  _470
REMARK  200  A    between atoms: _470  and  _471
REMARK  201  A    between atoms: _474  and  _476
REMARK  202  A    between atoms: _476  and  _477
REMARK  203  A    between atoms: _476  and  _479
REMARK  204  A    between atoms: _479  and  _480
REMARK  205  A    between atoms: _480  and  _481
REMARK  206  A    between atoms: _481  and  _482
REMARK                            x       y       z     vdW  Elec       q    Type
REMARK                         _______ _______ _______ _____ _____    ______ ____
ROOT
ATOM      1  O   HOH     1      25.919  18.036  13.461  0.00  0.00    +0.000 OA
ENDROOT
TORSDOF 0
REMARK  Name = ../refined-set-2016/3gc4/3gc4_pocket.pdb
REMARK  206 active torsions:
REMARK  status: ('A' for Active; 'I' for Inactive)
REMARK    1  A    between atoms: _1  and  _3
REMARK    2  A    between atoms: _3  and  _4
REMARK    3  A    between atoms: _3  and  _6
REMARK    4  A    between atoms: _6  and  _7
REMARK    5  A    between atoms: _7  and  _8
REMARK    6  A    between atoms: _10  and  _12
REMARK    7  A    between atoms: _12  and  _13
REMARK    8  A    between atoms: _12  and  _15
REMARK    9  A    between atoms: _18  and  _20
REMARK   10  A    between atoms: _20  and  _21
REMARK   11  A    between atoms: _23  and  _25
REMARK   12  A    between atoms: _25  and  _26
REMARK   13  A    between atoms: _25  and  _28
REMARK   14  A    between atoms: _28  and  _29
REMARK   15  A    between atoms: _32  and  _34
REMARK   16  A    between atoms: _34  and  _35
REMARK   17  A    between atoms: _34  and  _37
REMARK   18  A    between atoms: _37  and  _38
REMARK   19  A    between atoms: _38  and  _39
REMARK   20  A    between atoms: _39  and  _40
REMARK   21  A    between atoms: _40  and  _41
REMARK   22  A    between atoms: _45  and  _47
REMARK   23  A    between atoms: _47  and  _48
REMARK   24  A    between atoms: _47  and  _50
REMARK   25  A    between atoms: _50  and  _51
REMARK   26  A    between atoms: _54  and  _56
REMARK   27  A    between atoms: _56  and  _57
REMARK   28  A    between atoms: _59  and  _61
REMARK   29  A    between atoms: _61  and  _62
REMARK   30  A    between atoms: _61  and  _64
REMARK   31  A    between atoms: _64  and  _65
REMARK   32  A    between atoms: _70  and  _72
REMARK   33  A    between atoms: _72  and  _73
REMARK   34  A    between atoms: _72  and  _75
REMARK   35  A    between atoms: _75  and  _76
REMARK   36  A    between atoms: _79  and  _81
REMARK   37  A    between atoms: _81  and  _82
REMARK   38  A    between atoms: _81  and  _84
REMARK   39  A    between atoms: _84  and  _85
REMARK   40  A    between atoms: _90  and  _91
REMARK   41  A    between atoms: _93  and  _95
REMARK   42  A    between atoms: _95  and  _96
REMARK   43  A    between atoms: _95  and  _98
REMARK   44  A    between atoms: _98  and  _99
REMARK   45  A    between atoms: _104  and  _106
REMARK   46  A    between atoms: _106  and  _107
REMARK   47  A    between atoms: _106  and  _109
REMARK   48  A    between atoms: _109  and  _110
REMARK   49  A    between atoms: _113  and  _115
REMARK   50  A    between atoms: _115  and  _116
REMARK   51  A    between atoms: _115  and  _118
REMARK   52  A    between atoms: _118  and  _119
REMARK   53  A    between atoms: _122  and  _124
REMARK   54  A    between atoms: _124  and  _125
REMARK   55  A    between atoms: _124  and  _127
REMARK   56  A    between atoms: _127  and  _128
REMARK   57  A    between atoms: _131  and  _133
REMARK   58  A    between atoms: _133  and  _134
REMARK   59  A    between atoms: _133  and  _136
REMARK   60  A    between atoms: _136  and  _137
REMARK   61  A    between atoms: _139  and  _141
REMARK   62  A    between atoms: _141  and  _142
REMARK   63  A    between atoms: _144  and  _146
REMARK   64  A    between atoms: _146  and  _147
REMARK   65  A    between atoms: _149  and  _151
REMARK   66  A    between atoms: _151  and  _152
REMARK   67  A    between atoms: _151  and  _154
REMARK   68  A    between atoms: _154  and  _155
REMARK   69  A    between atoms: _160  and  _161
REMARK   70  A    between atoms: _163  and  _165
REMARK   71  A    between atoms: _165  and  _166
REMARK   72  A    between atoms: _165  and  _168
REMARK   73  A    between atoms: _168  and  _169
REMARK   74  A    between atoms: _169  and  _170
REMARK   75  A    between atoms: _175  and  _177
REMARK   76  A    between atoms: _177  and  _178
REMARK   77  A    between atoms: _177  and  _180
REMARK   78  A    between atoms: _180  and  _181
REMARK   79  A    between atoms: _181  and  _182
REMARK   80  A    between atoms: _184  and  _186
REMARK   81  A    between atoms: _186  and  _187
REMARK   82  A    between atoms: _190  and  _192
REMARK   83  A    between atoms: _192  and  _193
REMARK   84  A    between atoms: _192  and  _195
REMARK   85  A    between atoms: _195  and  _196
REMARK   86  A    between atoms: _202  and  _204
REMARK   87  A    between atoms: _204  and  _205
REMARK   88  A    between atoms: _204  and  _207
REMARK   89  A    between atoms: _207  and  _208
REMARK   90  A    between atoms: _211  and  _213
REMARK   91  A    between atoms: _213  and  _214
REMARK   92  A    between atoms: _213  and  _216
REMARK   93  A    between atoms: _216  and  _217
REMARK   94  A    between atoms: _217  and  _218
REMARK   95  A    between atoms: _221  and  _223
REMARK   96  A    between atoms: _223  and  _224
REMARK   97  A    between atoms: _223  and  _226
REMARK   98  A    between atoms: _228  and  _230
REMARK   99  A    between atoms: _230  and  _231
REMARK  100  A    between atoms: _230  and  _233
REMARK  101  A    between atoms: _233  and  _234
REMARK  102  A    between atoms: _237  and  _239
REMARK  103  A    between atoms: _239  and  _240
REMARK  104  A    between atoms: _239  and  _242
REMARK  105  A    between atoms: _242  and  _243
REMARK  106  A    between atoms: _245  and  _247
REMARK  107  A    between atoms: _247  and  _248
REMARK  108  A    between atoms: _247  and  _250
REMARK  109  A    between atoms: _250  and  _251
REMARK  110  A    between atoms: _254  and  _256
REMARK  111  A    between atoms: _256  and  _257
REMARK  112  A    between atoms: _256  and  _259
REMARK  113  A    between atoms: _259  and  _260
REMARK  114  A    between atoms: _260  and  _261
REMARK  115  A    between atoms: _266  and  _268
REMARK  116  A    between atoms: _268  and  _269
REMARK  117  A    between atoms: _268  and  _271
REMARK  118  A    between atoms: _271  and  _272
REMARK  119  A    between atoms: _272  and  _273
REMARK  120  A    between atoms: _278  and  _280
REMARK  121  A    between atoms: _280  and  _281
REMARK  122  A    between atoms: _283  and  _285
REMARK  123  A    between atoms: _285  and  _286
REMARK  124  A    between atoms: _285  and  _288
REMARK  125  A    between atoms: _288  and  _289
REMARK  126  A    between atoms: _291  and  _293
REMARK  127  A    between atoms: _293  and  _294
REMARK  128  A    between atoms: _293  and  _296
REMARK  129  A    between atoms: _296  and  _297
REMARK  130  A    between atoms: _297  and  _298
REMARK  131  A    between atoms: _298  and  _299
REMARK  132  A    between atoms: _308  and  _310
REMARK  133  A    between atoms: _310  and  _311
REMARK  134  A    between atoms: _314  and  _316
REMARK  135  A    between atoms: _316  and  _317
REMARK  136  A    between atoms: _316  and  _319
REMARK  137  A    between atoms: _322  and  _324
REMARK  138  A    between atoms: _324  and  _325
REMARK  139  A    between atoms: _327  and  _329
REMARK  140  A    between atoms: _329  and  _330
REMARK  141  A    between atoms: _332  and  _334
REMARK  142  A    between atoms: _334  and  _335
REMARK  143  A    between atoms: _334  and  _337
REMARK  144  A    between atoms: _337  and  _338
REMARK  145  A    between atoms: _341  and  _343
REMARK  146  A    between atoms: _343  and  _344
REMARK  147  A    between atoms: _347  and  _349
REMARK  148  A    between atoms: _349  and  _350
REMARK  149  A    between atoms: _349  and  _352
REMARK  150  A    between atoms: _355  and  _357
REMARK  151  A    between atoms: _357  and  _358
REMARK  152  A    between atoms: _360  and  _362
REMARK  153  A    between atoms: _362  and  _363
REMARK  154  A    between atoms: _362  and  _365
REMARK  155  A    between atoms: _365  and  _366
REMARK  156  A    between atoms: _366  and  _367
REMARK  157  A    between atoms: _370  and  _372
REMARK  158  A    between atoms: _372  and  _373
REMARK  159  A    between atoms: _372  and  _375
REMARK  160  A    between atoms: _375  and  _376
REMARK  161  A    between atoms: _376  and  _377
REMARK  162  A    between atoms: _379  and  _381
REMARK  163  A    between atoms: _381  and  _382
REMARK  164  A    between atoms: _381  and  _384
REMARK  165  A    between atoms: _384  and  _385
REMARK  166  A    between atoms: _390  and  _391
REMARK  167  A    between atoms: _393  and  _395
REMARK  168  A    between atoms: _395  and  _396
REMARK  169  A    between atoms: _395  and  _398
REMARK  170  A    between atoms: _398  and  _399
REMARK  171  A    between atoms: _402  and  _404
REMARK  172  A    between atoms: _404  and  _405
REMARK  173  A    between atoms: _404  and  _407
REMARK  174  A    between atoms: _407  and  _408
REMARK  175  A    between atoms: _408  and  _409
REMARK  176  A    between atoms: _411  and  _413
REMARK  177  A    between atoms: _413  and  _414
REMARK  178  A    between atoms: _416  and  _418
REMARK  179  A    between atoms: _418  and  _419
REMARK  180  A    between atoms: _418  and  _421
REMARK  181  A    between atoms: _424  and  _426
REMARK  182  A    between atoms: _426  and  _427
REMARK  183  A    between atoms: _429  and  _431
REMARK  184  A    between atoms: _431  and  _432
REMARK  185  A    between atoms: _431  and  _434
REMARK  186  A    between atoms: _434  and  _435
REMARK  187  A    between atoms: _441  and  _443
REMARK  188  A    between atoms: _443  and  _444
REMARK  189  A    between atoms: _443  and  _446
REMARK  190  A    between atoms: _446  and  _447
REMARK  191  A    between atoms: _450  and  _452
REMARK  192  A    between atoms: _452  and  _453
REMARK  193  A    between atoms: _452  and  _455
REMARK  194  A    between atoms: _457  and  _459
REMARK  195  A    between atoms: _459  and  _460
REMARK  196  A    between atoms: _459  and  _462
REMARK  197  A    between atoms: _465  and  _467
REMARK  198  A    between atoms: _467  and  _468
REMARK  199  A    between atoms: _467  and  _470
REMARK  200  A    between atoms: _470  and  _471
REMARK  201  A    between atoms: _474  and  _476
REMARK  202  A    between atoms: _476  and  _477
REMARK  203  A    between atoms: _476  and  _479
REMARK  204  A    between atoms: _479  and  _480
REMARK  205  A    between atoms: _480  and  _481
REMARK  206  A    between atoms: _481  and  _482
REMARK                            x       y       z     vdW  Elec       q    Type
REMARK                         _______ _______ _______ _____ _____    ______ ____
ROOT
ATOM      1  O   HOH     1       9.078  14.895   8.438  0.00  0.00    +0.000 OA
ENDROOT
TORSDOF 0
REMARK  Name = ../refined-set-2016/3gc4/3gc4_pocket.pdb
REMARK  206 active torsions:
REMARK  status: ('A' for Active; 'I' for Inactive)
REMARK    1  A    between atoms: _1  and  _3
REMARK    2  A    between atoms: _3  and  _4
REMARK    3  A    between atoms: _3  and  _6
REMARK    4  A    between atoms: _6  and  _7
REMARK    5  A    between atoms: _7  and  _8
REMARK    6  A    between atoms: _10  and  _12
REMARK    7  A    between atoms: _12  and  _13
REMARK    8  A    between atoms: _12  and  _15
REMARK    9  A    between atoms: _18  and  _20
REMARK   10  A    between atoms: _20  and  _21
REMARK   11  A    between atoms: _23  and  _25
REMARK   12  A    between atoms: _25  and  _26
REMARK   13  A    between atoms: _25  and  _28
REMARK   14  A    between atoms: _28  and  _29
REMARK   15  A    between atoms: _32  and  _34
REMARK   16  A    between atoms: _34  and  _35
REMARK   17  A    between atoms: _34  and  _37
REMARK   18  A    between atoms: _37  and  _38
REMARK   19  A    between atoms: _38  and  _39
REMARK   20  A    between atoms: _39  and  _40
REMARK   21  A    between atoms: _40  and  _41
REMARK   22  A    between atoms: _45  and  _47
REMARK   23  A    between atoms: _47  and  _48
REMARK   24  A    between atoms: _47  and  _50
REMARK   25  A    between atoms: _50  and  _51
REMARK   26  A    between atoms: _54  and  _56
REMARK   27  A    between atoms: _56  and  _57
REMARK   28  A    between atoms: _59  and  _61
REMARK   29  A    between atoms: _61  and  _62
REMARK   30  A    between atoms: _61  and  _64
REMARK   31  A    between atoms: _64  and  _65
REMARK   32  A    between atoms: _70  and  _72
REMARK   33  A    between atoms: _72  and  _73
REMARK   34  A    between atoms: _72  and  _75
REMARK   35  A    between atoms: _75  and  _76
REMARK   36  A    between atoms: _79  and  _81
REMARK   37  A    between atoms: _81  and  _82
REMARK   38  A    between atoms: _81  and  _84
REMARK   39  A    between atoms: _84  and  _85
REMARK   40  A    between atoms: _90  and  _91
REMARK   41  A    between atoms: _93  and  _95
REMARK   42  A    between atoms: _95  and  _96
REMARK   43  A    between atoms: _95  and  _98
REMARK   44  A    between atoms: _98  and  _99
REMARK   45  A    between atoms: _104  and  _106
REMARK   46  A    between atoms: _106  and  _107
REMARK   47  A    between atoms: _106  and  _109
REMARK   48  A    between atoms: _109  and  _110
REMARK   49  A    between atoms: _113  and  _115
REMARK   50  A    between atoms: _115  and  _116
REMARK   51  A    between atoms: _115  and  _118
REMARK   52  A    between atoms: _118  and  _119
REMARK   53  A    between atoms: _122  and  _124
REMARK   54  A    between atoms: _124  and  _125
REMARK   55  A    between atoms: _124  and  _127
REMARK   56  A    between atoms: _127  and  _128
REMARK   57  A    between atoms: _131  and  _133
REMARK   58  A    between atoms: _133  and  _134
REMARK   59  A    between atoms: _133  and  _136
REMARK   60  A    between atoms: _136  and  _137
REMARK   61  A    between atoms: _139  and  _141
REMARK   62  A    between atoms: _141  and  _142
REMARK   63  A    between atoms: _144  and  _146
REMARK   64  A    between atoms: _146  and  _147
REMARK   65  A    between atoms: _149  and  _151
REMARK   66  A    between atoms: _151  and  _152
REMARK   67  A    between atoms: _151  and  _154
REMARK   68  A    between atoms: _154  and  _155
REMARK   69  A    between atoms: _160  and  _161
REMARK   70  A    between atoms: _163  and  _165
REMARK   71  A    between atoms: _165  and  _166
REMARK   72  A    between atoms: _165  and  _168
REMARK   73  A    between atoms: _168  and  _169
REMARK   74  A    between atoms: _169  and  _170
REMARK   75  A    between atoms: _175  and  _177
REMARK   76  A    between atoms: _177  and  _178
REMARK   77  A    between atoms: _177  and  _180
REMARK   78  A    between atoms: _180  and  _181
REMARK   79  A    between atoms: _181  and  _182
REMARK   80  A    between atoms: _184  and  _186
REMARK   81  A    between atoms: _186  and  _187
REMARK   82  A    between atoms: _190  and  _192
REMARK   83  A    between atoms: _192  and  _193
REMARK   84  A    between atoms: _192  and  _195
REMARK   85  A    between atoms: _195  and  _196
REMARK   86  A    between atoms: _202  and  _204
REMARK   87  A    between atoms: _204  and  _205
REMARK   88  A    between atoms: _204  and  _207
REMARK   89  A    between atoms: _207  and  _208
REMARK   90  A    between atoms: _211  and  _213
REMARK   91  A    between atoms: _213  and  _214
REMARK   92  A    between atoms: _213  and  _216
REMARK   93  A    between atoms: _216  and  _217
REMARK   94  A    between atoms: _217  and  _218
REMARK   95  A    between atoms: _221  and  _223
REMARK   96  A    between atoms: _223  and  _224
REMARK   97  A    between atoms: _223  and  _226
REMARK   98  A    between atoms: _228  and  _230
REMARK   99  A    between atoms: _230  and  _231
REMARK  100  A    between atoms: _230  and  _233
REMARK  101  A    between atoms: _233  and  _234
REMARK  102  A    between atoms: _237  and  _239
REMARK  103  A    between atoms: _239  and  _240
REMARK  104  A    between atoms: _239  and  _242
REMARK  105  A    between atoms: _242  and  _243
REMARK  106  A    between atoms: _245  and  _247
REMARK  107  A    between atoms: _247  and  _248
REMARK  108  A    between atoms: _247  and  _250
REMARK  109  A    between atoms: _250  and  _251
REMARK  110  A    between atoms: _254  and  _256
REMARK  111  A    between atoms: _256  and  _257
REMARK  112  A    between atoms: _256  and  _259
REMARK  113  A    between atoms: _259  and  _260
REMARK  114  A    between atoms: _260  and  _261
REMARK  115  A    between atoms: _266  and  _268
REMARK  116  A    between atoms: _268  and  _269
REMARK  117  A    between atoms: _268  and  _271
REMARK  118  A    between atoms: _271  and  _272
REMARK  119  A    between atoms: _272  and  _273
REMARK  120  A    between atoms: _278  and  _280
REMARK  121  A    between atoms: _280  and  _281
REMARK  122  A    between atoms: _283  and  _285
REMARK  123  A    between atoms: _285  and  _286
REMARK  124  A    between atoms: _285  and  _288
REMARK  125  A    between atoms: _288  and  _289
REMARK  126  A    between atoms: _291  and  _293
REMARK  127  A    between atoms: _293  and  _294
REMARK  128  A    between atoms: _293  and  _296
REMARK  129  A    between atoms: _296  and  _297
REMARK  130  A    between atoms: _297  and  _298
REMARK  131  A    between atoms: _298  and  _299
REMARK  132  A    between atoms: _308  and  _310
REMARK  133  A    between atoms: _310  and  _311
REMARK  134  A    between atoms: _314  and  _316
REMARK  135  A    between atoms: _316  and  _317
REMARK  136  A    between atoms: _316  and  _319
REMARK  137  A    between atoms: _322  and  _324
REMARK  138  A    between atoms: _324  and  _325
REMARK  139  A    between atoms: _327  and  _329
REMARK  140  A    between atoms: _329  and  _330
REMARK  141  A    between atoms: _332  and  _334
REMARK  142  A    between atoms: _334  and  _335
REMARK  143  A    between atoms: _334  and  _337
REMARK  144  A    between atoms: _337  and  _338
REMARK  145  A    between atoms: _341  and  _343
REMARK  146  A    between atoms: _343  and  _344
REMARK  147  A    between atoms: _347  and  _349
REMARK  148  A    between atoms: _349  and  _350
REMARK  149  A    between atoms: _349  and  _352
REMARK  150  A    between atoms: _355  and  _357
REMARK  151  A    between atoms: _357  and  _358
REMARK  152  A    between atoms: _360  and  _362
REMARK  153  A    between atoms: _362  and  _363
REMARK  154  A    between atoms: _362  and  _365
REMARK  155  A    between atoms: _365  and  _366
REMARK  156  A    between atoms: _366  and  _367
REMARK  157  A    between atoms: _370  and  _372
REMARK  158  A    between atoms: _372  and  _373
REMARK  159  A    between atoms: _372  and  _375
REMARK  160  A    between atoms: _375  and  _376
REMARK  161  A    between atoms: _376  and  _377
REMARK  162  A    between atoms: _379  and  _381
REMARK  163  A    between atoms: _381  and  _382
REMARK  164  A    between atoms: _381  and  _384
REMARK  165  A    between atoms: _384  and  _385
REMARK  166  A    between atoms: _390  and  _391
REMARK  167  A    between atoms: _393  and  _395
REMARK  168  A    between atoms: _395  and  _396
REMARK  169  A    between atoms: _395  and  _398
REMARK  170  A    between atoms: _398  and  _399
REMARK  171  A    between atoms: _402  and  _404
REMARK  172  A    between atoms: _404  and  _405
REMARK  173  A    between atoms: _404  and  _407
REMARK  174  A    between atoms: _407  and  _408
REMARK  175  A    between atoms: _408  and  _409
REMARK  176  A    between atoms: _411  and  _413
REMARK  177  A    between atoms: _413  and  _414
REMARK  178  A    between atoms: _416  and  _418
REMARK  179  A    between atoms: _418  and  _419
REMARK  180  A    between atoms: _418  and  _421
REMARK  181  A    between atoms: _424  and  _426
REMARK  182  A    between atoms: _426  and  _427
REMARK  183  A    between atoms: _429  and  _431
REMARK  184  A    between atoms: _431  and  _432
REMARK  185  A    between atoms: _431  and  _434
REMARK  186  A    between atoms: _434  and  _435
REMARK  187  A    between atoms: _441  and  _443
REMARK  188  A    between atoms: _443  and  _444
REMARK  189  A    between atoms: _443  and  _446
REMARK  190  A    between atoms: _446  and  _447
REMARK  191  A    between atoms: _450  and  _452
REMARK  192  A    between atoms: _452  and  _453
REMARK  193  A    between atoms: _452  and  _455
REMARK  194  A    between atoms: _457  and  _459
REMARK  195  A    between atoms: _459  and  _460
REMARK  196  A    between atoms: _459  and  _462
REMARK  197  A    between atoms: _465  and  _467
REMARK  198  A    between atoms: _467  and  _468
REMARK  199  A    between atoms: _467  and  _470
REMARK  200  A    between atoms: _470  and  _471
REMARK  201  A    between atoms: _474  and  _476
REMARK  202  A    between atoms: _476  and  _477
REMARK  203  A    between atoms: _476  and  _479
REMARK  204  A    between atoms: _479  and  _480
REMARK  205  A    between atoms: _480  and  _481
REMARK  206  A    between atoms: _481  and  _482
REMARK                            x       y       z     vdW  Elec       q    Type
REMARK                         _______ _______ _______ _____ _____    ______ ____
ROOT
ATOM      1  O   HOH     1      11.337  17.583  22.150  0.00  0.00    +0.000 OA
ENDROOT
TORSDOF 0
REMARK  Name = ../refined-set-2016/3gc4/3gc4_pocket.pdb
REMARK  206 active torsions:
REMARK  status: ('A' for Active; 'I' for Inactive)
REMARK    1  A    between atoms: _1  and  _3
REMARK    2  A    between atoms: _3  and  _4
REMARK    3  A    between atoms: _3  and  _6
REMARK    4  A    between atoms: _6  and  _7
REMARK    5  A    between atoms: _7  and  _8
REMARK    6  A    between atoms: _10  and  _12
REMARK    7  A    between atoms: _12  and  _13
REMARK    8  A    between atoms: _12  and  _15
REMARK    9  A    between atoms: _18  and  _20
REMARK   10  A    between atoms: _20  and  _21
REMARK   11  A    between atoms: _23  and  _25
REMARK   12  A    between atoms: _25  and  _26
REMARK   13  A    between atoms: _25  and  _28
REMARK   14  A    between atoms: _28  and  _29
REMARK   15  A    between atoms: _32  and  _34
REMARK   16  A    between atoms: _34  and  _35
REMARK   17  A    between atoms: _34  and  _37
REMARK   18  A    between atoms: _37  and  _38
REMARK   19  A    between atoms: _38  and  _39
REMARK   20  A    between atoms: _39  and  _40
REMARK   21  A    between atoms: _40  and  _41
REMARK   22  A    between atoms: _45  and  _47
REMARK   23  A    between atoms: _47  and  _48
REMARK   24  A    between atoms: _47  and  _50
REMARK   25  A    between atoms: _50  and  _51
REMARK   26  A    between atoms: _54  and  _56
REMARK   27  A    between atoms: _56  and  _57
REMARK   28  A    between atoms: _59  and  _61
REMARK   29  A    between atoms: _61  and  _62
REMARK   30  A    between atoms: _61  and  _64
REMARK   31  A    between atoms: _64  and  _65
REMARK   32  A    between atoms: _70  and  _72
REMARK   33  A    between atoms: _72  and  _73
REMARK   34  A    between atoms: _72  and  _75
REMARK   35  A    between atoms: _75  and  _76
REMARK   36  A    between atoms: _79  and  _81
REMARK   37  A    between atoms: _81  and  _82
REMARK   38  A    between atoms: _81  and  _84
REMARK   39  A    between atoms: _84  and  _85
REMARK   40  A    between atoms: _90  and  _91
REMARK   41  A    between atoms: _93  and  _95
REMARK   42  A    between atoms: _95  and  _96
REMARK   43  A    between atoms: _95  and  _98
REMARK   44  A    between atoms: _98  and  _99
REMARK   45  A    between atoms: _104  and  _106
REMARK   46  A    between atoms: _106  and  _107
REMARK   47  A    between atoms: _106  and  _109
REMARK   48  A    between atoms: _109  and  _110
REMARK   49  A    between atoms: _113  and  _115
REMARK   50  A    between atoms: _115  and  _116
REMARK   51  A    between atoms: _115  and  _118
REMARK   52  A    between atoms: _118  and  _119
REMARK   53  A    between atoms: _122  and  _124
REMARK   54  A    between atoms: _124  and  _125
REMARK   55  A    between atoms: _124  and  _127
REMARK   56  A    between atoms: _127  and  _128
REMARK   57  A    between atoms: _131  and  _133
REMARK   58  A    between atoms: _133  and  _134
REMARK   59  A    between atoms: _133  and  _136
REMARK   60  A    between atoms: _136  and  _137
REMARK   61  A    between atoms: _139  and  _141
REMARK   62  A    between atoms: _141  and  _142
REMARK   63  A    between atoms: _144  and  _146
REMARK   64  A    between atoms: _146  and  _147
REMARK   65  A    between atoms: _149  and  _151
REMARK   66  A    between atoms: _151  and  _152
REMARK   67  A    between atoms: _151  and  _154
REMARK   68  A    between atoms: _154  and  _155
REMARK   69  A    between atoms: _160  and  _161
REMARK   70  A    between atoms: _163  and  _165
REMARK   71  A    between atoms: _165  and  _166
REMARK   72  A    between atoms: _165  and  _168
REMARK   73  A    between atoms: _168  and  _169
REMARK   74  A    between atoms: _169  and  _170
REMARK   75  A    between atoms: _175  and  _177
REMARK   76  A    between atoms: _177  and  _178
REMARK   77  A    between atoms: _177  and  _180
REMARK   78  A    between atoms: _180  and  _181
REMARK   79  A    between atoms: _181  and  _182
REMARK   80  A    between atoms: _184  and  _186
REMARK   81  A    between atoms: _186  and  _187
REMARK   82  A    between atoms: _190  and  _192
REMARK   83  A    between atoms: _192  and  _193
REMARK   84  A    between atoms: _192  and  _195
REMARK   85  A    between atoms: _195  and  _196
REMARK   86  A    between atoms: _202  and  _204
REMARK   87  A    between atoms: _204  and  _205
REMARK   88  A    between atoms: _204  and  _207
REMARK   89  A    between atoms: _207  and  _208
REMARK   90  A    between atoms: _211  and  _213
REMARK   91  A    between atoms: _213  and  _214
REMARK   92  A    between atoms: _213  and  _216
REMARK   93  A    between atoms: _216  and  _217
REMARK   94  A    between atoms: _217  and  _218
REMARK   95  A    between atoms: _221  and  _223
REMARK   96  A    between atoms: _223  and  _224
REMARK   97  A    between atoms: _223  and  _226
REMARK   98  A    between atoms: _228  and  _230
REMARK   99  A    between atoms: _230  and  _231
REMARK  100  A    between atoms: _230  and  _233
REMARK  101  A    between atoms: _233  and  _234
REMARK  102  A    between atoms: _237  and  _239
REMARK  103  A    between atoms: _239  and  _240
REMARK  104  A    between atoms: _239  and  _242
REMARK  105  A    between atoms: _242  and  _243
REMARK  106  A    between atoms: _245  and  _247
REMARK  107  A    between atoms: _247  and  _248
REMARK  108  A    between atoms: _247  and  _250
REMARK  109  A    between atoms: _250  and  _251
REMARK  110  A    between atoms: _254  and  _256
REMARK  111  A    between atoms: _256  and  _257
REMARK  112  A    between atoms: _256  and  _259
REMARK  113  A    between atoms: _259  and  _260
REMARK  114  A    between atoms: _260  and  _261
REMARK  115  A    between atoms: _266  and  _268
REMARK  116  A    between atoms: _268  and  _269
REMARK  117  A    between atoms: _268  and  _271
REMARK  118  A    between atoms: _271  and  _272
REMARK  119  A    between atoms: _272  and  _273
REMARK  120  A    between atoms: _278  and  _280
REMARK  121  A    between atoms: _280  and  _281
REMARK  122  A    between atoms: _283  and  _285
REMARK  123  A    between atoms: _285  and  _286
REMARK  124  A    between atoms: _285  and  _288
REMARK  125  A    between atoms: _288  and  _289
REMARK  126  A    between atoms: _291  and  _293
REMARK  127  A    between atoms: _293  and  _294
REMARK  128  A    between atoms: _293  and  _296
REMARK  129  A    between atoms: _296  and  _297
REMARK  130  A    between atoms: _297  and  _298
REMARK  131  A    between atoms: _298  and  _299
REMARK  132  A    between atoms: _308  and  _310
REMARK  133  A    between atoms: _310  and  _311
REMARK  134  A    between atoms: _314  and  _316
REMARK  135  A    between atoms: _316  and  _317
REMARK  136  A    between atoms: _316  and  _319
REMARK  137  A    between atoms: _322  and  _324
REMARK  138  A    between atoms: _324  and  _325
REMARK  139  A    between atoms: _327  and  _329
REMARK  140  A    between atoms: _329  and  _330
REMARK  141  A    between atoms: _332  and  _334
REMARK  142  A    between atoms: _334  and  _335
REMARK  143  A    between atoms: _334  and  _337
REMARK  144  A    between atoms: _337  and  _338
REMARK  145  A    between atoms: _341  and  _343
REMARK  146  A    between atoms: _343  and  _344
REMARK  147  A    between atoms: _347  and  _349
REMARK  148  A    between atoms: _349  and  _350
REMARK  149  A    between atoms: _349  and  _352
REMARK  150  A    between atoms: _355  and  _357
REMARK  151  A    between atoms: _357  and  _358
REMARK  152  A    between atoms: _360  and  _362
REMARK  153  A    between atoms: _362  and  _363
REMARK  154  A    between atoms: _362  and  _365
REMARK  155  A    between atoms: _365  and  _366
REMARK  156  A    between atoms: _366  and  _367
REMARK  157  A    between atoms: _370  and  _372
REMARK  158  A    between atoms: _372  and  _373
REMARK  159  A    between atoms: _372  and  _375
REMARK  160  A    between atoms: _375  and  _376
REMARK  161  A    between atoms: _376  and  _377
REMARK  162  A    between atoms: _379  and  _381
REMARK  163  A    between atoms: _381  and  _382
REMARK  164  A    between atoms: _381  and  _384
REMARK  165  A    between atoms: _384  and  _385
REMARK  166  A    between atoms: _390  and  _391
REMARK  167  A    between atoms: _393  and  _395
REMARK  168  A    between atoms: _395  and  _396
REMARK  169  A    between atoms: _395  and  _398
REMARK  170  A    between atoms: _398  and  _399
REMARK  171  A    between atoms: _402  and  _404
REMARK  172  A    between atoms: _404  and  _405
REMARK  173  A    between atoms: _404  and  _407
REMARK  174  A    between atoms: _407  and  _408
REMARK  175  A    between atoms: _408  and  _409
REMARK  176  A    between atoms: _411  and  _413
REMARK  177  A    between atoms: _413  and  _414
REMARK  178  A    between atoms: _416  and  _418
REMARK  179  A    between atoms: _418  and  _419
REMARK  180  A    between atoms: _418  and  _421
REMARK  181  A    between atoms: _424  and  _426
REMARK  182  A    between atoms: _426  and  _427
REMARK  183  A    between atoms: _429  and  _431
REMARK  184  A    between atoms: _431  and  _432
REMARK  185  A    between atoms: _431  and  _434
REMARK  186  A    between atoms: _434  and  _435
REMARK  187  A    between atoms: _441  and  _443
REMARK  188  A    between atoms: _443  and  _444
REMARK  189  A    between atoms: _443  and  _446
REMARK  190  A    between atoms: _446  and  _447
REMARK  191  A    between atoms: _450  and  _452
REMARK  192  A    between atoms: _452  and  _453
REMARK  193  A    between atoms: _452  and  _455
REMARK  194  A    between atoms: _457  and  _459
REMARK  195  A    between atoms: _459  and  _460
REMARK  196  A    between atoms: _459  and  _462
REMARK  197  A    between atoms: _465  and  _467
REMARK  198  A    between atoms: _467  and  _468
REMARK  199  A    between atoms: _467  and  _470
REMARK  200  A    between atoms: _470  and  _471
REMARK  201  A    between atoms: _474  and  _476
REMARK  202  A    between atoms: _476  and  _477
REMARK  203  A    between atoms: _476  and  _479
REMARK  204  A    between atoms: _479  and  _480
REMARK  205  A    between atoms: _480  and  _481
REMARK  206  A    between atoms: _481  and  _482
REMARK                            x       y       z     vdW  Elec       q    Type
REMARK                         _______ _______ _______ _____ _____    ______ ____
ROOT
ATOM      1  O   HOH     1      21.625  15.318  20.076  0.00  0.00    +0.000 OA
ENDROOT
TORSDOF 0
REMARK  Name = ../refined-set-2016/3gc4/3gc4_pocket.pdb
REMARK  206 active torsions:
REMARK  status: ('A' for Active; 'I' for Inactive)
REMARK    1  A    between atoms: _1  and  _3
REMARK    2  A    between atoms: _3  and  _4
REMARK    3  A    between atoms: _3  and  _6
REMARK    4  A    between atoms: _6  and  _7
REMARK    5  A    between atoms: _7  and  _8
REMARK    6  A    between atoms: _10  and  _12
REMARK    7  A    between atoms: _12  and  _13
REMARK    8  A    between atoms: _12  and  _15
REMARK    9  A    between atoms: _18  and  _20
REMARK   10  A    between atoms: _20  and  _21
REMARK   11  A    between atoms: _23  and  _25
REMARK   12  A    between atoms: _25  and  _26
REMARK   13  A    between atoms: _25  and  _28
REMARK   14  A    between atoms: _28  and  _29
REMARK   15  A    between atoms: _32  and  _34
REMARK   16  A    between atoms: _34  and  _35
REMARK   17  A    between atoms: _34  and  _37
REMARK   18  A    between atoms: _37  and  _38
REMARK   19  A    between atoms: _38  and  _39
REMARK   20  A    between atoms: _39  and  _40
REMARK   21  A    between atoms: _40  and  _41
REMARK   22  A    between atoms: _45  and  _47
REMARK   23  A    between atoms: _47  and  _48
REMARK   24  A    between atoms: _47  and  _50
REMARK   25  A    between atoms: _50  and  _51
REMARK   26  A    between atoms: _54  and  _56
REMARK   27  A    between atoms: _56  and  _57
REMARK   28  A    between atoms: _59  and  _61
REMARK   29  A    between atoms: _61  and  _62
REMARK   30  A    between atoms: _61  and  _64
REMARK   31  A    between atoms: _64  and  _65
REMARK   32  A    between atoms: _70  and  _72
REMARK   33  A    between atoms: _72  and  _73
REMARK   34  A    between atoms: _72  and  _75
REMARK   35  A    between atoms: _75  and  _76
REMARK   36  A    between atoms: _79  and  _81
REMARK   37  A    between atoms: _81  and  _82
REMARK   38  A    between atoms: _81  and  _84
REMARK   39  A    between atoms: _84  and  _85
REMARK   40  A    between atoms: _90  and  _91
REMARK   41  A    between atoms: _93  and  _95
REMARK   42  A    between atoms: _95  and  _96
REMARK   43  A    between atoms: _95  and  _98
REMARK   44  A    between atoms: _98  and  _99
REMARK   45  A    between atoms: _104  and  _106
REMARK   46  A    between atoms: _106  and  _107
REMARK   47  A    between atoms: _106  and  _109
REMARK   48  A    between atoms: _109  and  _110
REMARK   49  A    between atoms: _113  and  _115
REMARK   50  A    between atoms: _115  and  _116
REMARK   51  A    between atoms: _115  and  _118
REMARK   52  A    between atoms: _118  and  _119
REMARK   53  A    between atoms: _122  and  _124
REMARK   54  A    between atoms: _124  and  _125
REMARK   55  A    between atoms: _124  and  _127
REMARK   56  A    between atoms: _127  and  _128
REMARK   57  A    between atoms: _131  and  _133
REMARK   58  A    between atoms: _133  and  _134
REMARK   59  A    between atoms: _133  and  _136
REMARK   60  A    between atoms: _136  and  _137
REMARK   61  A    between atoms: _139  and  _141
REMARK   62  A    between atoms: _141  and  _142
REMARK   63  A    between atoms: _144  and  _146
REMARK   64  A    between atoms: _146  and  _147
REMARK   65  A    between atoms: _149  and  _151
REMARK   66  A    between atoms: _151  and  _152
REMARK   67  A    between atoms: _151  and  _154
REMARK   68  A    between atoms: _154  and  _155
REMARK   69  A    between atoms: _160  and  _161
REMARK   70  A    between atoms: _163  and  _165
REMARK   71  A    between atoms: _165  and  _166
REMARK   72  A    between atoms: _165  and  _168
REMARK   73  A    between atoms: _168  and  _169
REMARK   74  A    between atoms: _169  and  _170
REMARK   75  A    between atoms: _175  and  _177
REMARK   76  A    between atoms: _177  and  _178
REMARK   77  A    between atoms: _177  and  _180
REMARK   78  A    between atoms: _180  and  _181
REMARK   79  A    between atoms: _181  and  _182
REMARK   80  A    between atoms: _184  and  _186
REMARK   81  A    between atoms: _186  and  _187
REMARK   82  A    between atoms: _190  and  _192
REMARK   83  A    between atoms: _192  and  _193
REMARK   84  A    between atoms: _192  and  _195
REMARK   85  A    between atoms: _195  and  _196
REMARK   86  A    between atoms: _202  and  _204
REMARK   87  A    between atoms: _204  and  _205
REMARK   88  A    between atoms: _204  and  _207
REMARK   89  A    between atoms: _207  and  _208
REMARK   90  A    between atoms: _211  and  _213
REMARK   91  A    between atoms: _213  and  _214
REMARK   92  A    between atoms: _213  and  _216
REMARK   93  A    between atoms: _216  and  _217
REMARK   94  A    between atoms: _217  and  _218
REMARK   95  A    between atoms: _221  and  _223
REMARK   96  A    between atoms: _223  and  _224
REMARK   97  A    between atoms: _223  and  _226
REMARK   98  A    between atoms: _228  and  _230
REMARK   99  A    between atoms: _230  and  _231
REMARK  100  A    between atoms: _230  and  _233
REMARK  101  A    between atoms: _233  and  _234
REMARK  102  A    between atoms: _237  and  _239
REMARK  103  A    between atoms: _239  and  _240
REMARK  104  A    between atoms: _239  and  _242
REMARK  105  A    between atoms: _242  and  _243
REMARK  106  A    between atoms: _245  and  _247
REMARK  107  A    between atoms: _247  and  _248
REMARK  108  A    between atoms: _247  and  _250
REMARK  109  A    between atoms: _250  and  _251
REMARK  110  A    between atoms: _254  and  _256
REMARK  111  A    between atoms: _256  and  _257
REMARK  112  A    between atoms: _256  and  _259
REMARK  113  A    between atoms: _259  and  _260
REMARK  114  A    between atoms: _260  and  _261
REMARK  115  A    between atoms: _266  and  _268
REMARK  116  A    between atoms: _268  and  _269
REMARK  117  A    between atoms: _268  and  _271
REMARK  118  A    between atoms: _271  and  _272
REMARK  119  A    between atoms: _272  and  _273
REMARK  120  A    between atoms: _278  and  _280
REMARK  121  A    between atoms: _280  and  _281
REMARK  122  A    between atoms: _283  and  _285
REMARK  123  A    between atoms: _285  and  _286
REMARK  124  A    between atoms: _285  and  _288
REMARK  125  A    between atoms: _288  and  _289
REMARK  126  A    between atoms: _291  and  _293
REMARK  127  A    between atoms: _293  and  _294
REMARK  128  A    between atoms: _293  and  _296
REMARK  129  A    between atoms: _296  and  _297
REMARK  130  A    between atoms: _297  and  _298
REMARK  131  A    between atoms: _298  and  _299
REMARK  132  A    between atoms: _308  and  _310
REMARK  133  A    between atoms: _310  and  _311
REMARK  134  A    between atoms: _314  and  _316
REMARK  135  A    between atoms: _316  and  _317
REMARK  136  A    between atoms: _316  and  _319
REMARK  137  A    between atoms: _322  and  _324
REMARK  138  A    between atoms: _324  and  _325
REMARK  139  A    between atoms: _327  and  _329
REMARK  140  A    between atoms: _329  and  _330
REMARK  141  A    between atoms: _332  and  _334
REMARK  142  A    between atoms: _334  and  _335
REMARK  143  A    between atoms: _334  and  _337
REMARK  144  A    between atoms: _337  and  _338
REMARK  145  A    between atoms: _341  and  _343
REMARK  146  A    between atoms: _343  and  _344
REMARK  147  A    between atoms: _347  and  _349
REMARK  148  A    between atoms: _349  and  _350
REMARK  149  A    between atoms: _349  and  _352
REMARK  150  A    between atoms: _355  and  _357
REMARK  151  A    between atoms: _357  and  _358
REMARK  152  A    between atoms: _360  and  _362
REMARK  153  A    between atoms: _362  and  _363
REMARK  154  A    between atoms: _362  and  _365
REMARK  155  A    between atoms: _365  and  _366
REMARK  156  A    between atoms: _366  and  _367
REMARK  157  A    between atoms: _370  and  _372
REMARK  158  A    between atoms: _372  and  _373
REMARK  159  A    between atoms: _372  and  _375
REMARK  160  A    between atoms: _375  and  _376
REMARK  161  A    between atoms: _376  and  _377
REMARK  162  A    between atoms: _379  and  _381
REMARK  163  A    between atoms: _381  and  _382
REMARK  164  A    between atoms: _381  and  _384
REMARK  165  A    between atoms: _384  and  _385
REMARK  166  A    between atoms: _390  and  _391
REMARK  167  A    between atoms: _393  and  _395
REMARK  168  A    between atoms: _395  and  _396
REMARK  169  A    between atoms: _395  and  _398
REMARK  170  A    between atoms: _398  and  _399
REMARK  171  A    between atoms: _402  and  _404
REMARK  172  A    between atoms: _404  and  _405
REMARK  173  A    between atoms: _404  and  _407
REMARK  174  A    between atoms: _407  and  _408
REMARK  175  A    between atoms: _408  and  _409
REMARK  176  A    between atoms: _411  and  _413
REMARK  177  A    between atoms: _413  and  _414
REMARK  178  A    between atoms: _416  and  _418
REMARK  179  A    between atoms: _418  and  _419
REMARK  180  A    between atoms: _418  and  _421
REMARK  181  A    between atoms: _424  and  _426
REMARK  182  A    between atoms: _426  and  _427
REMARK  183  A    between atoms: _429  and  _431
REMARK  184  A    between atoms: _431  and  _432
REMARK  185  A    between atoms: _431  and  _434
REMARK  186  A    between atoms: _434  and  _435
REMARK  187  A    between atoms: _441  and  _443
REMARK  188  A    between atoms: _443  and  _444
REMARK  189  A    between atoms: _443  and  _446
REMARK  190  A    between atoms: _446  and  _447
REMARK  191  A    between atoms: _450  and  _452
REMARK  192  A    between atoms: _452  and  _453
REMARK  193  A    between atoms: _452  and  _455
REMARK  194  A    between atoms: _457  and  _459
REMARK  195  A    between atoms: _459  and  _460
REMARK  196  A    between atoms: _459  and  _462
REMARK  197  A    between atoms: _465  and  _467
REMARK  198  A    between atoms: _467  and  _468
REMARK  199  A    between atoms: _467  and  _470
REMARK  200  A    between atoms: _470  and  _471
REMARK  201  A    between atoms: _474  and  _476
REMARK  202  A    between atoms: _476  and  _477
REMARK  203  A    between atoms: _476  and  _479
REMARK  204  A    between atoms: _479  and  _480
REMARK  205  A    between atoms: _480  and  _481
REMARK  206  A    between atoms: _481  and  _482
REMARK                            x       y       z     vdW  Elec       q    Type
REMARK                         _______ _______ _______ _____ _____    ______ ____
ROOT
ATOM      1  O   HOH     1       4.340  18.949  11.267  0.00  0.00    +0.000 OA
ENDROOT
TORSDOF 0
REMARK  Name = ../refined-set-2016/3gc4/3gc4_pocket.pdb
REMARK  206 active torsions:
REMARK  status: ('A' for Active; 'I' for Inactive)
REMARK    1  A    between atoms: _1  and  _3
REMARK    2  A    between atoms: _3  and  _4
REMARK    3  A    between atoms: _3  and  _6
REMARK    4  A    between atoms: _6  and  _7
REMARK    5  A    between atoms: _7  and  _8
REMARK    6  A    between atoms: _10  and  _12
REMARK    7  A    between atoms: _12  and  _13
REMARK    8  A    between atoms: _12  and  _15
REMARK    9  A    between atoms: _18  and  _20
REMARK   10  A    between atoms: _20  and  _21
REMARK   11  A    between atoms: _23  and  _25
REMARK   12  A    between atoms: _25  and  _26
REMARK   13  A    between atoms: _25  and  _28
REMARK   14  A    between atoms: _28  and  _29
REMARK   15  A    between atoms: _32  and  _34
REMARK   16  A    between atoms: _34  and  _35
REMARK   17  A    between atoms: _34  and  _37
REMARK   18  A    between atoms: _37  and  _38
REMARK   19  A    between atoms: _38  and  _39
REMARK   20  A    between atoms: _39  and  _40
REMARK   21  A    between atoms: _40  and  _41
REMARK   22  A    between atoms: _45  and  _47
REMARK   23  A    between atoms: _47  and  _48
REMARK   24  A    between atoms: _47  and  _50
REMARK   25  A    between atoms: _50  and  _51
REMARK   26  A    between atoms: _54  and  _56
REMARK   27  A    between atoms: _56  and  _57
REMARK   28  A    between atoms: _59  and  _61
REMARK   29  A    between atoms: _61  and  _62
REMARK   30  A    between atoms: _61  and  _64
REMARK   31  A    between atoms: _64  and  _65
REMARK   32  A    between atoms: _70  and  _72
REMARK   33  A    between atoms: _72  and  _73
REMARK   34  A    between atoms: _72  and  _75
REMARK   35  A    between atoms: _75  and  _76
REMARK   36  A    between atoms: _79  and  _81
REMARK   37  A    between atoms: _81  and  _82
REMARK   38  A    between atoms: _81  and  _84
REMARK   39  A    between atoms: _84  and  _85
REMARK   40  A    between atoms: _90  and  _91
REMARK   41  A    between atoms: _93  and  _95
REMARK   42  A    between atoms: _95  and  _96
REMARK   43  A    between atoms: _95  and  _98
REMARK   44  A    between atoms: _98  and  _99
REMARK   45  A    between atoms: _104  and  _106
REMARK   46  A    between atoms: _106  and  _107
REMARK   47  A    between atoms: _106  and  _109
REMARK   48  A    between atoms: _109  and  _110
REMARK   49  A    between atoms: _113  and  _115
REMARK   50  A    between atoms: _115  and  _116
REMARK   51  A    between atoms: _115  and  _118
REMARK   52  A    between atoms: _118  and  _119
REMARK   53  A    between atoms: _122  and  _124
REMARK   54  A    between atoms: _124  and  _125
REMARK   55  A    between atoms: _124  and  _127
REMARK   56  A    between atoms: _127  and  _128
REMARK   57  A    between atoms: _131  and  _133
REMARK   58  A    between atoms: _133  and  _134
REMARK   59  A    between atoms: _133  and  _136
REMARK   60  A    between atoms: _136  and  _137
REMARK   61  A    between atoms: _139  and  _141
REMARK   62  A    between atoms: _141  and  _142
REMARK   63  A    between atoms: _144  and  _146
REMARK   64  A    between atoms: _146  and  _147
REMARK   65  A    between atoms: _149  and  _151
REMARK   66  A    between atoms: _151  and  _152
REMARK   67  A    between atoms: _151  and  _154
REMARK   68  A    between atoms: _154  and  _155
REMARK   69  A    between atoms: _160  and  _161
REMARK   70  A    between atoms: _163  and  _165
REMARK   71  A    between atoms: _165  and  _166
REMARK   72  A    between atoms: _165  and  _168
REMARK   73  A    between atoms: _168  and  _169
REMARK   74  A    between atoms: _169  and  _170
REMARK   75  A    between atoms: _175  and  _177
REMARK   76  A    between atoms: _177  and  _178
REMARK   77  A    between atoms: _177  and  _180
REMARK   78  A    between atoms: _180  and  _181
REMARK   79  A    between atoms: _181  and  _182
REMARK   80  A    between atoms: _184  and  _186
REMARK   81  A    between atoms: _186  and  _187
REMARK   82  A    between atoms: _190  and  _192
REMARK   83  A    between atoms: _192  and  _193
REMARK   84  A    between atoms: _192  and  _195
REMARK   85  A    between atoms: _195  and  _196
REMARK   86  A    between atoms: _202  and  _204
REMARK   87  A    between atoms: _204  and  _205
REMARK   88  A    between atoms: _204  and  _207
REMARK   89  A    between atoms: _207  and  _208
REMARK   90  A    between atoms: _211  and  _213
REMARK   91  A    between atoms: _213  and  _214
REMARK   92  A    between atoms: _213  and  _216
REMARK   93  A    between atoms: _216  and  _217
REMARK   94  A    between atoms: _217  and  _218
REMARK   95  A    between atoms: _221  and  _223
REMARK   96  A    between atoms: _223  and  _224
REMARK   97  A    between atoms: _223  and  _226
REMARK   98  A    between atoms: _228  and  _230
REMARK   99  A    between atoms: _230  and  _231
REMARK  100  A    between atoms: _230  and  _233
REMARK  101  A    between atoms: _233  and  _234
REMARK  102  A    between atoms: _237  and  _239
REMARK  103  A    between atoms: _239  and  _240
REMARK  104  A    between atoms: _239  and  _242
REMARK  105  A    between atoms: _242  and  _243
REMARK  106  A    between atoms: _245  and  _247
REMARK  107  A    between atoms: _247  and  _248
REMARK  108  A    between atoms: _247  and  _250
REMARK  109  A    between atoms: _250  and  _251
REMARK  110  A    between atoms: _254  and  _256
REMARK  111  A    between atoms: _256  and  _257
REMARK  112  A    between atoms: _256  and  _259
REMARK  113  A    between atoms: _259  and  _260
REMARK  114  A    between atoms: _260  and  _261
REMARK  115  A    between atoms: _266  and  _268
REMARK  116  A    between atoms: _268  and  _269
REMARK  117  A    between atoms: _268  and  _271
REMARK  118  A    between atoms: _271  and  _272
REMARK  119  A    between atoms: _272  and  _273
REMARK  120  A    between atoms: _278  and  _280
REMARK  121  A    between atoms: _280  and  _281
REMARK  122  A    between atoms: _283  and  _285
REMARK  123  A    between atoms: _285  and  _286
REMARK  124  A    between atoms: _285  and  _288
REMARK  125  A    between atoms: _288  and  _289
REMARK  126  A    between atoms: _291  and  _293
REMARK  127  A    between atoms: _293  and  _294
REMARK  128  A    between atoms: _293  and  _296
REMARK  129  A    between atoms: _296  and  _297
REMARK  130  A    between atoms: _297  and  _298
REMARK  131  A    between atoms: _298  and  _299
REMARK  132  A    between atoms: _308  and  _310
REMARK  133  A    between atoms: _310  and  _311
REMARK  134  A    between atoms: _314  and  _316
REMARK  135  A    between atoms: _316  and  _317
REMARK  136  A    between atoms: _316  and  _319
REMARK  137  A    between atoms: _322  and  _324
REMARK  138  A    between atoms: _324  and  _325
REMARK  139  A    between atoms: _327  and  _329
REMARK  140  A    between atoms: _329  and  _330
REMARK  141  A    between atoms: _332  and  _334
REMARK  142  A    between atoms: _334  and  _335
REMARK  143  A    between atoms: _334  and  _337
REMARK  144  A    between atoms: _337  and  _338
REMARK  145  A    between atoms: _341  and  _343
REMARK  146  A    between atoms: _343  and  _344
REMARK  147  A    between atoms: _347  and  _349
REMARK  148  A    between atoms: _349  and  _350
REMARK  149  A    between atoms: _349  and  _352
REMARK  150  A    between atoms: _355  and  _357
REMARK  151  A    between atoms: _357  and  _358
REMARK  152  A    between atoms: _360  and  _362
REMARK  153  A    between atoms: _362  and  _363
REMARK  154  A    between atoms: _362  and  _365
REMARK  155  A    between atoms: _365  and  _366
REMARK  156  A    between atoms: _366  and  _367
REMARK  157  A    between atoms: _370  and  _372
REMARK  158  A    between atoms: _372  and  _373
REMARK  159  A    between atoms: _372  and  _375
REMARK  160  A    between atoms: _375  and  _376
REMARK  161  A    between atoms: _376  and  _377
REMARK  162  A    between atoms: _379  and  _381
REMARK  163  A    between atoms: _381  and  _382
REMARK  164  A    between atoms: _381  and  _384
REMARK  165  A    between atoms: _384  and  _385
REMARK  166  A    between atoms: _390  and  _391
REMARK  167  A    between atoms: _393  and  _395
REMARK  168  A    between atoms: _395  and  _396
REMARK  169  A    between atoms: _395  and  _398
REMARK  170  A    between atoms: _398  and  _399
REMARK  171  A    between atoms: _402  and  _404
REMARK  172  A    between atoms: _404  and  _405
REMARK  173  A    between atoms: _404  and  _407
REMARK  174  A    between atoms: _407  and  _408
REMARK  175  A    between atoms: _408  and  _409
REMARK  176  A    between atoms: _411  and  _413
REMARK  177  A    between atoms: _413  and  _414
REMARK  178  A    between atoms: _416  and  _418
REMARK  179  A    between atoms: _418  and  _419
REMARK  180  A    between atoms: _418  and  _421
REMARK  181  A    between atoms: _424  and  _426
REMARK  182  A    between atoms: _426  and  _427
REMARK  183  A    between atoms: _429  and  _431
REMARK  184  A    between atoms: _431  and  _432
REMARK  185  A    between atoms: _431  and  _434
REMARK  186  A    between atoms: _434  and  _435
REMARK  187  A    between atoms: _441  and  _443
REMARK  188  A    between atoms: _443  and  _444
REMARK  189  A    between atoms: _443  and  _446
REMARK  190  A    between atoms: _446  and  _447
REMARK  191  A    between atoms: _450  and  _452
REMARK  192  A    between atoms: _452  and  _453
REMARK  193  A    between atoms: _452  and  _455
REMARK  194  A    between atoms: _457  and  _459
REMARK  195  A    between atoms: _459  and  _460
REMARK  196  A    between atoms: _459  and  _462
REMARK  197  A    between atoms: _465  and  _467
REMARK  198  A    between atoms: _467  and  _468
REMARK  199  A    between atoms: _467  and  _470
REMARK  200  A    between atoms: _470  and  _471
REMARK  201  A    between atoms: _474  and  _476
REMARK  202  A    between atoms: _476  and  _477
REMARK  203  A    between atoms: _476  and  _479
REMARK  204  A    between atoms: _479  and  _480
REMARK  205  A    between atoms: _480  and  _481
REMARK  206  A    between atoms: _481  and  _482
REMARK                            x       y       z     vdW  Elec       q    Type
REMARK                         _______ _______ _______ _____ _____    ______ ____
ROOT
ATOM      1  O   HOH     1      20.789  21.060  29.117  0.00  0.00    +0.000 OA
ENDROOT
TORSDOF 0
REMARK  Name = ../refined-set-2016/3gc4/3gc4_pocket.pdb
REMARK  206 active torsions:
REMARK  status: ('A' for Active; 'I' for Inactive)
REMARK    1  A    between atoms: _1  and  _3
REMARK    2  A    between atoms: _3  and  _4
REMARK    3  A    between atoms: _3  and  _6
REMARK    4  A    between atoms: _6  and  _7
REMARK    5  A    between atoms: _7  and  _8
REMARK    6  A    between atoms: _10  and  _12
REMARK    7  A    between atoms: _12  and  _13
REMARK    8  A    between atoms: _12  and  _15
REMARK    9  A    between atoms: _18  and  _20
REMARK   10  A    between atoms: _20  and  _21
REMARK   11  A    between atoms: _23  and  _25
REMARK   12  A    between atoms: _25  and  _26
REMARK   13  A    between atoms: _25  and  _28
REMARK   14  A    between atoms: _28  and  _29
REMARK   15  A    between atoms: _32  and  _34
REMARK   16  A    between atoms: _34  and  _35
REMARK   17  A    between atoms: _34  and  _37
REMARK   18  A    between atoms: _37  and  _38
REMARK   19  A    between atoms: _38  and  _39
REMARK   20  A    between atoms: _39  and  _40
REMARK   21  A    between atoms: _40  and  _41
REMARK   22  A    between atoms: _45  and  _47
REMARK   23  A    between atoms: _47  and  _48
REMARK   24  A    between atoms: _47  and  _50
REMARK   25  A    between atoms: _50  and  _51
REMARK   26  A    between atoms: _54  and  _56
REMARK   27  A    between atoms: _56  and  _57
REMARK   28  A    between atoms: _59  and  _61
REMARK   29  A    between atoms: _61  and  _62
REMARK   30  A    between atoms: _61  and  _64
REMARK   31  A    between atoms: _64  and  _65
REMARK   32  A    between atoms: _70  and  _72
REMARK   33  A    between atoms: _72  and  _73
REMARK   34  A    between atoms: _72  and  _75
REMARK   35  A    between atoms: _75  and  _76
REMARK   36  A    between atoms: _79  and  _81
REMARK   37  A    between atoms: _81  and  _82
REMARK   38  A    between atoms: _81  and  _84
REMARK   39  A    between atoms: _84  and  _85
REMARK   40  A    between atoms: _90  and  _91
REMARK   41  A    between atoms: _93  and  _95
REMARK   42  A    between atoms: _95  and  _96
REMARK   43  A    between atoms: _95  and  _98
REMARK   44  A    between atoms: _98  and  _99
REMARK   45  A    between atoms: _104  and  _106
REMARK   46  A    between atoms: _106  and  _107
REMARK   47  A    between atoms: _106  and  _109
REMARK   48  A    between atoms: _109  and  _110
REMARK   49  A    between atoms: _113  and  _115
REMARK   50  A    between atoms: _115  and  _116
REMARK   51  A    between atoms: _115  and  _118
REMARK   52  A    between atoms: _118  and  _119
REMARK   53  A    between atoms: _122  and  _124
REMARK   54  A    between atoms: _124  and  _125
REMARK   55  A    between atoms: _124  and  _127
REMARK   56  A    between atoms: _127  and  _128
REMARK   57  A    between atoms: _131  and  _133
REMARK   58  A    between atoms: _133  and  _134
REMARK   59  A    between atoms: _133  and  _136
REMARK   60  A    between atoms: _136  and  _137
REMARK   61  A    between atoms: _139  and  _141
REMARK   62  A    between atoms: _141  and  _142
REMARK   63  A    between atoms: _144  and  _146
REMARK   64  A    between atoms: _146  and  _147
REMARK   65  A    between atoms: _149  and  _151
REMARK   66  A    between atoms: _151  and  _152
REMARK   67  A    between atoms: _151  and  _154
REMARK   68  A    between atoms: _154  and  _155
REMARK   69  A    between atoms: _160  and  _161
REMARK   70  A    between atoms: _163  and  _165
REMARK   71  A    between atoms: _165  and  _166
REMARK   72  A    between atoms: _165  and  _168
REMARK   73  A    between atoms: _168  and  _169
REMARK   74  A    between atoms: _169  and  _170
REMARK   75  A    between atoms: _175  and  _177
REMARK   76  A    between atoms: _177  and  _178
REMARK   77  A    between atoms: _177  and  _180
REMARK   78  A    between atoms: _180  and  _181
REMARK   79  A    between atoms: _181  and  _182
REMARK   80  A    between atoms: _184  and  _186
REMARK   81  A    between atoms: _186  and  _187
REMARK   82  A    between atoms: _190  and  _192
REMARK   83  A    between atoms: _192  and  _193
REMARK   84  A    between atoms: _192  and  _195
REMARK   85  A    between atoms: _195  and  _196
REMARK   86  A    between atoms: _202  and  _204
REMARK   87  A    between atoms: _204  and  _205
REMARK   88  A    between atoms: _204  and  _207
REMARK   89  A    between atoms: _207  and  _208
REMARK   90  A    between atoms: _211  and  _213
REMARK   91  A    between atoms: _213  and  _214
REMARK   92  A    between atoms: _213  and  _216
REMARK   93  A    between atoms: _216  and  _217
REMARK   94  A    between atoms: _217  and  _218
REMARK   95  A    between atoms: _221  and  _223
REMARK   96  A    between atoms: _223  and  _224
REMARK   97  A    between atoms: _223  and  _226
REMARK   98  A    between atoms: _228  and  _230
REMARK   99  A    between atoms: _230  and  _231
REMARK  100  A    between atoms: _230  and  _233
REMARK  101  A    between atoms: _233  and  _234
REMARK  102  A    between atoms: _237  and  _239
REMARK  103  A    between atoms: _239  and  _240
REMARK  104  A    between atoms: _239  and  _242
REMARK  105  A    between atoms: _242  and  _243
REMARK  106  A    between atoms: _245  and  _247
REMARK  107  A    between atoms: _247  and  _248
REMARK  108  A    between atoms: _247  and  _250
REMARK  109  A    between atoms: _250  and  _251
REMARK  110  A    between atoms: _254  and  _256
REMARK  111  A    between atoms: _256  and  _257
REMARK  112  A    between atoms: _256  and  _259
REMARK  113  A    between atoms: _259  and  _260
REMARK  114  A    between atoms: _260  and  _261
REMARK  115  A    between atoms: _266  and  _268
REMARK  116  A    between atoms: _268  and  _269
REMARK  117  A    between atoms: _268  and  _271
REMARK  118  A    between atoms: _271  and  _272
REMARK  119  A    between atoms: _272  and  _273
REMARK  120  A    between atoms: _278  and  _280
REMARK  121  A    between atoms: _280  and  _281
REMARK  122  A    between atoms: _283  and  _285
REMARK  123  A    between atoms: _285  and  _286
REMARK  124  A    between atoms: _285  and  _288
REMARK  125  A    between atoms: _288  and  _289
REMARK  126  A    between atoms: _291  and  _293
REMARK  127  A    between atoms: _293  and  _294
REMARK  128  A    between atoms: _293  and  _296
REMARK  129  A    between atoms: _296  and  _297
REMARK  130  A    between atoms: _297  and  _298
REMARK  131  A    between atoms: _298  and  _299
REMARK  132  A    between atoms: _308  and  _310
REMARK  133  A    between atoms: _310  and  _311
REMARK  134  A    between atoms: _314  and  _316
REMARK  135  A    between atoms: _316  and  _317
REMARK  136  A    between atoms: _316  and  _319
REMARK  137  A    between atoms: _322  and  _324
REMARK  138  A    between atoms: _324  and  _325
REMARK  139  A    between atoms: _327  and  _329
REMARK  140  A    between atoms: _329  and  _330
REMARK  141  A    between atoms: _332  and  _334
REMARK  142  A    between atoms: _334  and  _335
REMARK  143  A    between atoms: _334  and  _337
REMARK  144  A    between atoms: _337  and  _338
REMARK  145  A    between atoms: _341  and  _343
REMARK  146  A    between atoms: _343  and  _344
REMARK  147  A    between atoms: _347  and  _349
REMARK  148  A    between atoms: _349  and  _350
REMARK  149  A    between atoms: _349  and  _352
REMARK  150  A    between atoms: _355  and  _357
REMARK  151  A    between atoms: _357  and  _358
REMARK  152  A    between atoms: _360  and  _362
REMARK  153  A    between atoms: _362  and  _363
REMARK  154  A    between atoms: _362  and  _365
REMARK  155  A    between atoms: _365  and  _366
REMARK  156  A    between atoms: _366  and  _367
REMARK  157  A    between atoms: _370  and  _372
REMARK  158  A    between atoms: _372  and  _373
REMARK  159  A    between atoms: _372  and  _375
REMARK  160  A    between atoms: _375  and  _376
REMARK  161  A    between atoms: _376  and  _377
REMARK  162  A    between atoms: _379  and  _381
REMARK  163  A    between atoms: _381  and  _382
REMARK  164  A    between atoms: _381  and  _384
REMARK  165  A    between atoms: _384  and  _385
REMARK  166  A    between atoms: _390  and  _391
REMARK  167  A    between atoms: _393  and  _395
REMARK  168  A    between atoms: _395  and  _396
REMARK  169  A    between atoms: _395  and  _398
REMARK  170  A    between atoms: _398  and  _399
REMARK  171  A    between atoms: _402  and  _404
REMARK  172  A    between atoms: _404  and  _405
REMARK  173  A    between atoms: _404  and  _407
REMARK  174  A    between atoms: _407  and  _408
REMARK  175  A    between atoms: _408  and  _409
REMARK  176  A    between atoms: _411  and  _413
REMARK  177  A    between atoms: _413  and  _414
REMARK  178  A    between atoms: _416  and  _418
REMARK  179  A    between atoms: _418  and  _419
REMARK  180  A    between atoms: _418  and  _421
REMARK  181  A    between atoms: _424  and  _426
REMARK  182  A    between atoms: _426  and  _427
REMARK  183  A    between atoms: _429  and  _431
REMARK  184  A    between atoms: _431  and  _432
REMARK  185  A    between atoms: _431  and  _434
REMARK  186  A    between atoms: _434  and  _435
REMARK  187  A    between atoms: _441  and  _443
REMARK  188  A    between atoms: _443  and  _444
REMARK  189  A    between atoms: _443  and  _446
REMARK  190  A    between atoms: _446  and  _447
REMARK  191  A    between atoms: _450  and  _452
REMARK  192  A    between atoms: _452  and  _453
REMARK  193  A    between atoms: _452  and  _455
REMARK  194  A    between atoms: _457  and  _459
REMARK  195  A    between atoms: _459  and  _460
REMARK  196  A    between atoms: _459  and  _462
REMARK  197  A    between atoms: _465  and  _467
REMARK  198  A    between atoms: _467  and  _468
REMARK  199  A    between atoms: _467  and  _470
REMARK  200  A    between atoms: _470  and  _471
REMARK  201  A    between atoms: _474  and  _476
REMARK  202  A    between atoms: _476  and  _477
REMARK  203  A    between atoms: _476  and  _479
REMARK  204  A    between atoms: _479  and  _480
REMARK  205  A    between atoms: _480  and  _481
REMARK  206  A    between atoms: _481  and  _482
REMARK                            x       y       z     vdW  Elec       q    Type
REMARK                         _______ _______ _______ _____ _____    ______ ____
ROOT
ATOM      1  O   HOH     1      20.469  16.002  11.748  0.00  0.00    +0.000 OA
ENDROOT
TORSDOF 0
REMARK  Name = ../refined-set-2016/3gc4/3gc4_pocket.pdb
REMARK  206 active torsions:
REMARK  status: ('A' for Active; 'I' for Inactive)
REMARK    1  A    between atoms: _1  and  _3
REMARK    2  A    between atoms: _3  and  _4
REMARK    3  A    between atoms: _3  and  _6
REMARK    4  A    between atoms: _6  and  _7
REMARK    5  A    between atoms: _7  and  _8
REMARK    6  A    between atoms: _10  and  _12
REMARK    7  A    between atoms: _12  and  _13
REMARK    8  A    between atoms: _12  and  _15
REMARK    9  A    between atoms: _18  and  _20
REMARK   10  A    between atoms: _20  and  _21
REMARK   11  A    between atoms: _23  and  _25
REMARK   12  A    between atoms: _25  and  _26
REMARK   13  A    between atoms: _25  and  _28
REMARK   14  A    between atoms: _28  and  _29
REMARK   15  A    between atoms: _32  and  _34
REMARK   16  A    between atoms: _34  and  _35
REMARK   17  A    between atoms: _34  and  _37
REMARK   18  A    between atoms: _37  and  _38
REMARK   19  A    between atoms: _38  and  _39
REMARK   20  A    between atoms: _39  and  _40
REMARK   21  A    between atoms: _40  and  _41
REMARK   22  A    between atoms: _45  and  _47
REMARK   23  A    between atoms: _47  and  _48
REMARK   24  A    between atoms: _47  and  _50
REMARK   25  A    between atoms: _50  and  _51
REMARK   26  A    between atoms: _54  and  _56
REMARK   27  A    between atoms: _56  and  _57
REMARK   28  A    between atoms: _59  and  _61
REMARK   29  A    between atoms: _61  and  _62
REMARK   30  A    between atoms: _61  and  _64
REMARK   31  A    between atoms: _64  and  _65
REMARK   32  A    between atoms: _70  and  _72
REMARK   33  A    between atoms: _72  and  _73
REMARK   34  A    between atoms: _72  and  _75
REMARK   35  A    between atoms: _75  and  _76
REMARK   36  A    between atoms: _79  and  _81
REMARK   37  A    between atoms: _81  and  _82
REMARK   38  A    between atoms: _81  and  _84
REMARK   39  A    between atoms: _84  and  _85
REMARK   40  A    between atoms: _90  and  _91
REMARK   41  A    between atoms: _93  and  _95
REMARK   42  A    between atoms: _95  and  _96
REMARK   43  A    between atoms: _95  and  _98
REMARK   44  A    between atoms: _98  and  _99
REMARK   45  A    between atoms: _104  and  _106
REMARK   46  A    between atoms: _106  and  _107
REMARK   47  A    between atoms: _106  and  _109
REMARK   48  A    between atoms: _109  and  _110
REMARK   49  A    between atoms: _113  and  _115
REMARK   50  A    between atoms: _115  and  _116
REMARK   51  A    between atoms: _115  and  _118
REMARK   52  A    between atoms: _118  and  _119
REMARK   53  A    between atoms: _122  and  _124
REMARK   54  A    between atoms: _124  and  _125
REMARK   55  A    between atoms: _124  and  _127
REMARK   56  A    between atoms: _127  and  _128
REMARK   57  A    between atoms: _131  and  _133
REMARK   58  A    between atoms: _133  and  _134
REMARK   59  A    between atoms: _133  and  _136
REMARK   60  A    between atoms: _136  and  _137
REMARK   61  A    between atoms: _139  and  _141
REMARK   62  A    between atoms: _141  and  _142
REMARK   63  A    between atoms: _144  and  _146
REMARK   64  A    between atoms: _146  and  _147
REMARK   65  A    between atoms: _149  and  _151
REMARK   66  A    between atoms: _151  and  _152
REMARK   67  A    between atoms: _151  and  _154
REMARK   68  A    between atoms: _154  and  _155
REMARK   69  A    between atoms: _160  and  _161
REMARK   70  A    between atoms: _163  and  _165
REMARK   71  A    between atoms: _165  and  _166
REMARK   72  A    between atoms: _165  and  _168
REMARK   73  A    between atoms: _168  and  _169
REMARK   74  A    between atoms: _169  and  _170
REMARK   75  A    between atoms: _175  and  _177
REMARK   76  A    between atoms: _177  and  _178
REMARK   77  A    between atoms: _177  and  _180
REMARK   78  A    between atoms: _180  and  _181
REMARK   79  A    between atoms: _181  and  _182
REMARK   80  A    between atoms: _184  and  _186
REMARK   81  A    between atoms: _186  and  _187
REMARK   82  A    between atoms: _190  and  _192
REMARK   83  A    between atoms: _192  and  _193
REMARK   84  A    between atoms: _192  and  _195
REMARK   85  A    between atoms: _195  and  _196
REMARK   86  A    between atoms: _202  and  _204
REMARK   87  A    between atoms: _204  and  _205
REMARK   88  A    between atoms: _204  and  _207
REMARK   89  A    between atoms: _207  and  _208
REMARK   90  A    between atoms: _211  and  _213
REMARK   91  A    between atoms: _213  and  _214
REMARK   92  A    between atoms: _213  and  _216
REMARK   93  A    between atoms: _216  and  _217
REMARK   94  A    between atoms: _217  and  _218
REMARK   95  A    between atoms: _221  and  _223
REMARK   96  A    between atoms: _223  and  _224
REMARK   97  A    between atoms: _223  and  _226
REMARK   98  A    between atoms: _228  and  _230
REMARK   99  A    between atoms: _230  and  _231
REMARK  100  A    between atoms: _230  and  _233
REMARK  101  A    between atoms: _233  and  _234
REMARK  102  A    between atoms: _237  and  _239
REMARK  103  A    between atoms: _239  and  _240
REMARK  104  A    between atoms: _239  and  _242
REMARK  105  A    between atoms: _242  and  _243
REMARK  106  A    between atoms: _245  and  _247
REMARK  107  A    between atoms: _247  and  _248
REMARK  108  A    between atoms: _247  and  _250
REMARK  109  A    between atoms: _250  and  _251
REMARK  110  A    between atoms: _254  and  _256
REMARK  111  A    between atoms: _256  and  _257
REMARK  112  A    between atoms: _256  and  _259
REMARK  113  A    between atoms: _259  and  _260
REMARK  114  A    between atoms: _260  and  _261
REMARK  115  A    between atoms: _266  and  _268
REMARK  116  A    between atoms: _268  and  _269
REMARK  117  A    between atoms: _268  and  _271
REMARK  118  A    between atoms: _271  and  _272
REMARK  119  A    between atoms: _272  and  _273
REMARK  120  A    between atoms: _278  and  _280
REMARK  121  A    between atoms: _280  and  _281
REMARK  122  A    between atoms: _283  and  _285
REMARK  123  A    between atoms: _285  and  _286
REMARK  124  A    between atoms: _285  and  _288
REMARK  125  A    between atoms: _288  and  _289
REMARK  126  A    between atoms: _291  and  _293
REMARK  127  A    between atoms: _293  and  _294
REMARK  128  A    between atoms: _293  and  _296
REMARK  129  A    between atoms: _296  and  _297
REMARK  130  A    between atoms: _297  and  _298
REMARK  131  A    between atoms: _298  and  _299
REMARK  132  A    between atoms: _308  and  _310
REMARK  133  A    between atoms: _310  and  _311
REMARK  134  A    between atoms: _314  and  _316
REMARK  135  A    between atoms: _316  and  _317
REMARK  136  A    between atoms: _316  and  _319
REMARK  137  A    between atoms: _322  and  _324
REMARK  138  A    between atoms: _324  and  _325
REMARK  139  A    between atoms: _327  and  _329
REMARK  140  A    between atoms: _329  and  _330
REMARK  141  A    between atoms: _332  and  _334
REMARK  142  A    between atoms: _334  and  _335
REMARK  143  A    between atoms: _334  and  _337
REMARK  144  A    between atoms: _337  and  _338
REMARK  145  A    between atoms: _341  and  _343
REMARK  146  A    between atoms: _343  and  _344
REMARK  147  A    between atoms: _347  and  _349
REMARK  148  A    between atoms: _349  and  _350
REMARK  149  A    between atoms: _349  and  _352
REMARK  150  A    between atoms: _355  and  _357
REMARK  151  A    between atoms: _357  and  _358
REMARK  152  A    between atoms: _360  and  _362
REMARK  153  A    between atoms: _362  and  _363
REMARK  154  A    between atoms: _362  and  _365
REMARK  155  A    between atoms: _365  and  _366
REMARK  156  A    between atoms: _366  and  _367
REMARK  157  A    between atoms: _370  and  _372
REMARK  158  A    between atoms: _372  and  _373
REMARK  159  A    between atoms: _372  and  _375
REMARK  160  A    between atoms: _375  and  _376
REMARK  161  A    between atoms: _376  and  _377
REMARK  162  A    between atoms: _379  and  _381
REMARK  163  A    between atoms: _381  and  _382
REMARK  164  A    between atoms: _381  and  _384
REMARK  165  A    between atoms: _384  and  _385
REMARK  166  A    between atoms: _390  and  _391
REMARK  167  A    between atoms: _393  and  _395
REMARK  168  A    between atoms: _395  and  _396
REMARK  169  A    between atoms: _395  and  _398
REMARK  170  A    between atoms: _398  and  _399
REMARK  171  A    between atoms: _402  and  _404
REMARK  172  A    between atoms: _404  and  _405
REMARK  173  A    between atoms: _404  and  _407
REMARK  174  A    between atoms: _407  and  _408
REMARK  175  A    between atoms: _408  and  _409
REMARK  176  A    between atoms: _411  and  _413
REMARK  177  A    between atoms: _413  and  _414
REMARK  178  A    between atoms: _416  and  _418
REMARK  179  A    between atoms: _418  and  _419
REMARK  180  A    between atoms: _418  and  _421
REMARK  181  A    between atoms: _424  and  _426
REMARK  182  A    between atoms: _426  and  _427
REMARK  183  A    between atoms: _429  and  _431
REMARK  184  A    between atoms: _431  and  _432
REMARK  185  A    between atoms: _431  and  _434
REMARK  186  A    between atoms: _434  and  _435
REMARK  187  A    between atoms: _441  and  _443
REMARK  188  A    between atoms: _443  and  _444
REMARK  189  A    between atoms: _443  and  _446
REMARK  190  A    between atoms: _446  and  _447
REMARK  191  A    between atoms: _450  and  _452
REMARK  192  A    between atoms: _452  and  _453
REMARK  193  A    between atoms: _452  and  _455
REMARK  194  A    between atoms: _457  and  _459
REMARK  195  A    between atoms: _459  and  _460
REMARK  196  A    between atoms: _459  and  _462
REMARK  197  A    between atoms: _465  and  _467
REMARK  198  A    between atoms: _467  and  _468
REMARK  199  A    between atoms: _467  and  _470
REMARK  200  A    between atoms: _470  and  _471
REMARK  201  A    between atoms: _474  and  _476
REMARK  202  A    between atoms: _476  and  _477
REMARK  203  A    between atoms: _476  and  _479
REMARK  204  A    between atoms: _479  and  _480
REMARK  205  A    between atoms: _480  and  _481
REMARK  206  A    between atoms: _481  and  _482
REMARK                            x       y       z     vdW  Elec       q    Type
REMARK                         _______ _______ _______ _____ _____    ______ ____
ROOT
ATOM      1  O   HOH     1       8.494  16.572  21.419  0.00  0.00    +0.000 OA
ENDROOT
TORSDOF 0
