REMARK  Name = ../refined-set-2016/2yki/2yki_pocket.pdb
REMARK  281 active torsions:
REMARK  status: ('A' for Active; 'I' for Inactive)
REMARK    1  A    between atoms: _1  and  _3
REMARK    2  A    between atoms: _3  and  _4
REMARK    3  A    between atoms: _3  and  _6
REMARK    4  A    between atoms: _6  and  _7
REMARK    5  A    between atoms: _13  and  _15
REMARK    6  A    between atoms: _15  and  _16
REMARK    7  A    between atoms: _19  and  _21
REMARK    8  A    between atoms: _21  and  _22
REMARK    9  A    between atoms: _21  and  _24
REMARK   10  A    between atoms: _24  and  _25
REMARK   11  A    between atoms: _31  and  _33
REMARK   12  A    between atoms: _33  and  _34
REMARK   13  A    between atoms: _33  and  _36
REMARK   14  A    between atoms: _36  and  _37
REMARK   15  A    between atoms: _37  and  _38
REMARK   16  A    between atoms: _43  and  _45
REMARK   17  A    between atoms: _45  and  _46
REMARK   18  A    between atoms: _45  and  _48
REMARK   19  A    between atoms: _48  and  _49
REMARK   20  A    between atoms: _52  and  _54
REMARK   21  A    between atoms: _54  and  _55
REMARK   22  A    between atoms: _58  and  _60
REMARK   23  A    between atoms: _60  and  _61
REMARK   24  A    between atoms: _60  and  _63
REMARK   25  A    between atoms: _63  and  _64
REMARK   26  A    between atoms: _67  and  _69
REMARK   27  A    between atoms: _69  and  _70
REMARK   28  A    between atoms: _69  and  _72
REMARK   29  A    between atoms: _72  and  _73
REMARK   30  A    between atoms: _73  and  _74
REMARK   31  A    between atoms: _76  and  _78
REMARK   32  A    between atoms: _78  and  _79
REMARK   33  A    between atoms: _78  and  _81
REMARK   34  A    between atoms: _81  and  _82
REMARK   35  A    between atoms: _82  and  _83
REMARK   36  A    between atoms: _86  and  _88
REMARK   37  A    between atoms: _88  and  _89
REMARK   38  A    between atoms: _88  and  _91
REMARK   39  A    between atoms: _91  and  _92
REMARK   40  A    between atoms: _95  and  _97
REMARK   41  A    between atoms: _97  and  _98
REMARK   42  A    between atoms: _97  and  _100
REMARK   43  A    between atoms: _100  and  _101
REMARK   44  A    between atoms: _104  and  _106
REMARK   45  A    between atoms: _106  and  _107
REMARK   46  A    between atoms: _106  and  _109
REMARK   47  A    between atoms: _109  and  _110
REMARK   48  A    between atoms: _112  and  _114
REMARK   49  A    between atoms: _114  and  _115
REMARK   50  A    between atoms: _114  and  _117
REMARK   51  A    between atoms: _117  and  _118
REMARK   52  A    between atoms: _123  and  _125
REMARK   53  A    between atoms: _125  and  _126
REMARK   54  A    between atoms: _125  and  _128
REMARK   55  A    between atoms: _128  and  _129
REMARK   56  A    between atoms: _131  and  _133
REMARK   57  A    between atoms: _133  and  _134
REMARK   58  A    between atoms: _133  and  _136
REMARK   59  A    between atoms: _136  and  _137
REMARK   60  A    between atoms: _139  and  _141
REMARK   61  A    between atoms: _141  and  _142
REMARK   62  A    between atoms: _141  and  _144
REMARK   63  A    between atoms: _144  and  _145
REMARK   64  A    between atoms: _148  and  _150
REMARK   65  A    between atoms: _150  and  _151
REMARK   66  A    between atoms: _154  and  _156
REMARK   67  A    between atoms: _156  and  _157
REMARK   68  A    between atoms: _156  and  _159
REMARK   69  A    between atoms: _159  and  _160
REMARK   70  A    between atoms: _163  and  _165
REMARK   71  A    between atoms: _165  and  _166
REMARK   72  A    between atoms: _165  and  _168
REMARK   73  A    between atoms: _168  and  _169
REMARK   74  A    between atoms: _169  and  _170
REMARK   75  A    between atoms: _170  and  _171
REMARK   76  A    between atoms: _171  and  _172
REMARK   77  A    between atoms: _176  and  _178
REMARK   78  A    between atoms: _178  and  _179
REMARK   79  A    between atoms: _178  and  _181
REMARK   80  A    between atoms: _181  and  _182
REMARK   81  A    between atoms: _185  and  _187
REMARK   82  A    between atoms: _187  and  _188
REMARK   83  A    between atoms: _187  and  _190
REMARK   84  A    between atoms: _190  and  _191
REMARK   85  A    between atoms: _194  and  _196
REMARK   86  A    between atoms: _196  and  _197
REMARK   87  A    between atoms: _196  and  _199
REMARK   88  A    between atoms: _202  and  _204
REMARK   89  A    between atoms: _204  and  _205
REMARK   90  A    between atoms: _204  and  _207
REMARK   91  A    between atoms: _207  and  _208
REMARK   92  A    between atoms: _211  and  _213
REMARK   93  A    between atoms: _213  and  _214
REMARK   94  A    between atoms: _213  and  _216
REMARK   95  A    between atoms: _216  and  _217
REMARK   96  A    between atoms: _220  and  _222
REMARK   97  A    between atoms: _222  and  _223
REMARK   98  A    between atoms: _225  and  _227
REMARK   99  A    between atoms: _227  and  _228
REMARK  100  A    between atoms: _227  and  _230
REMARK  101  A    between atoms: _230  and  _231
REMARK  102  A    between atoms: _234  and  _236
REMARK  103  A    between atoms: _236  and  _237
REMARK  104  A    between atoms: _239  and  _241
REMARK  105  A    between atoms: _241  and  _242
REMARK  106  A    between atoms: _241  and  _244
REMARK  107  A    between atoms: _244  and  _245
REMARK  108  A    between atoms: _245  and  _246
REMARK  109  A    between atoms: _248  and  _250
REMARK  110  A    between atoms: _250  and  _251
REMARK  111  A    between atoms: _250  and  _253
REMARK  112  A    between atoms: _253  and  _254
REMARK  113  A    between atoms: _257  and  _259
REMARK  114  A    between atoms: _259  and  _260
REMARK  115  A    between atoms: _259  and  _262
REMARK  116  A    between atoms: _262  and  _263
REMARK  117  A    between atoms: _263  and  _264
REMARK  118  A    between atoms: _264  and  _265
REMARK  119  A    between atoms: _265  and  _266
REMARK  120  A    between atoms: _270  and  _272
REMARK  121  A    between atoms: _272  and  _273
REMARK  122  A    between atoms: _276  and  _278
REMARK  123  A    between atoms: _278  and  _279
REMARK  124  A    between atoms: _278  and  _281
REMARK  125  A    between atoms: _281  and  _282
REMARK  126  A    between atoms: _285  and  _287
REMARK  127  A    between atoms: _287  and  _288
REMARK  128  A    between atoms: _287  and  _290
REMARK  129  A    between atoms: _290  and  _291
REMARK  130  A    between atoms: _294  and  _296
REMARK  131  A    between atoms: _296  and  _297
REMARK  132  A    between atoms: _296  and  _299
REMARK  133  A    between atoms: _299  and  _300
REMARK  134  A    between atoms: _303  and  _305
REMARK  135  A    between atoms: _305  and  _306
REMARK  136  A    between atoms: _305  and  _308
REMARK  137  A    between atoms: _308  and  _309
REMARK  138  A    between atoms: _314  and  _316
REMARK  139  A    between atoms: _316  and  _317
REMARK  140  A    between atoms: _316  and  _319
REMARK  141  A    between atoms: _319  and  _320
REMARK  142  A    between atoms: _325  and  _327
REMARK  143  A    between atoms: _327  and  _328
REMARK  144  A    between atoms: _327  and  _330
REMARK  145  A    between atoms: _330  and  _331
REMARK  146  A    between atoms: _334  and  _336
REMARK  147  A    between atoms: _336  and  _337
REMARK  148  A    between atoms: _339  and  _341
REMARK  149  A    between atoms: _341  and  _342
REMARK  150  A    between atoms: _341  and  _344
REMARK  151  A    between atoms: _344  and  _345
REMARK  152  A    between atoms: _348  and  _350
REMARK  153  A    between atoms: _350  and  _351
REMARK  154  A    between atoms: _350  and  _353
REMARK  155  A    between atoms: _353  and  _354
REMARK  156  A    between atoms: _357  and  _359
REMARK  157  A    between atoms: _359  and  _360
REMARK  158  A    between atoms: _363  and  _365
REMARK  159  A    between atoms: _365  and  _366
REMARK  160  A    between atoms: _365  and  _368
REMARK  161  A    between atoms: _368  and  _369
REMARK  162  A    between atoms: _369  and  _370
REMARK  163  A    between atoms: _370  and  _371
REMARK  164  A    between atoms: _371  and  _372
REMARK  165  A    between atoms: _376  and  _378
REMARK  166  A    between atoms: _378  and  _379
REMARK  167  A    between atoms: _378  and  _381
REMARK  168  A    between atoms: _381  and  _382
REMARK  169  A    between atoms: _384  and  _386
REMARK  170  A    between atoms: _386  and  _387
REMARK  171  A    between atoms: _389  and  _391
REMARK  172  A    between atoms: _391  and  _392
REMARK  173  A    between atoms: _391  and  _394
REMARK  174  A    between atoms: _394  and  _395
REMARK  175  A    between atoms: _398  and  _400
REMARK  176  A    between atoms: _400  and  _401
REMARK  177  A    between atoms: _400  and  _403
REMARK  178  A    between atoms: _403  and  _404
REMARK  179  A    between atoms: _410  and  _412
REMARK  180  A    between atoms: _412  and  _413
REMARK  181  A    between atoms: _415  and  _417
REMARK  182  A    between atoms: _417  and  _418
REMARK  183  A    between atoms: _417  and  _420
REMARK  184  A    between atoms: _423  and  _425
REMARK  185  A    between atoms: _425  and  _426
REMARK  186  A    between atoms: _428  and  _430
REMARK  187  A    between atoms: _430  and  _431
REMARK  188  A    between atoms: _430  and  _433
REMARK  189  A    between atoms: _433  and  _434
REMARK  190  A    between atoms: _440  and  _442
REMARK  191  A    between atoms: _442  and  _443
REMARK  192  A    between atoms: _442  and  _445
REMARK  193  A    between atoms: _445  and  _446
REMARK  194  A    between atoms: _451  and  _452
REMARK  195  A    between atoms: _454  and  _456
REMARK  196  A    between atoms: _456  and  _457
REMARK  197  A    between atoms: _456  and  _459
REMARK  198  A    between atoms: _459  and  _460
REMARK  199  A    between atoms: _462  and  _464
REMARK  200  A    between atoms: _464  and  _465
REMARK  201  A    between atoms: _468  and  _470
REMARK  202  A    between atoms: _470  and  _471
REMARK  203  A    between atoms: _470  and  _473
REMARK  204  A    between atoms: _473  and  _474
REMARK  205  A    between atoms: _479  and  _480
REMARK  206  A    between atoms: _482  and  _484
REMARK  207  A    between atoms: _484  and  _485
REMARK  208  A    between atoms: _484  and  _487
REMARK  209  A    between atoms: _490  and  _492
REMARK  210  A    between atoms: _492  and  _493
REMARK  211  A    between atoms: _492  and  _495
REMARK  212  A    between atoms: _495  and  _496
REMARK  213  A    between atoms: _499  and  _501
REMARK  214  A    between atoms: _501  and  _502
REMARK  215  A    between atoms: _501  and  _504
REMARK  216  A    between atoms: _507  and  _509
REMARK  217  A    between atoms: _509  and  _510
REMARK  218  A    between atoms: _509  and  _512
REMARK  219  A    between atoms: _512  and  _513
REMARK  220  A    between atoms: _516  and  _518
REMARK  221  A    between atoms: _518  and  _519
REMARK  222  A    between atoms: _518  and  _521
REMARK  223  A    between atoms: _521  and  _522
REMARK  224  A    between atoms: _525  and  _527
REMARK  225  A    between atoms: _527  and  _528
REMARK  226  A    between atoms: _527  and  _530
REMARK  227  A    between atoms: _530  and  _531
REMARK  228  A    between atoms: _531  and  _532
REMARK  229  A    between atoms: _532  and  _533
REMARK  230  A    between atoms: _533  and  _534
REMARK  231  A    between atoms: _538  and  _540
REMARK  232  A    between atoms: _540  and  _541
REMARK  233  A    between atoms: _540  and  _543
REMARK  234  A    between atoms: _543  and  _544
REMARK  235  A    between atoms: _549  and  _551
REMARK  236  A    between atoms: _551  and  _552
REMARK  237  A    between atoms: _555  and  _557
REMARK  238  A    between atoms: _557  and  _558
REMARK  239  A    between atoms: _557  and  _560
REMARK  240  A    between atoms: _560  and  _561
REMARK  241  A    between atoms: _571  and  _573
REMARK  242  A    between atoms: _573  and  _574
REMARK  243  A    between atoms: _573  and  _576
REMARK  244  A    between atoms: _576  and  _577
REMARK  245  A    between atoms: _577  and  _578
REMARK  246  A    between atoms: _581  and  _583
REMARK  247  A    between atoms: _583  and  _584
REMARK  248  A    between atoms: _583  and  _586
REMARK  249  A    between atoms: _586  and  _587
REMARK  250  A    between atoms: _589  and  _591
REMARK  251  A    between atoms: _591  and  _592
REMARK  252  A    between atoms: _591  and  _594
REMARK  253  A    between atoms: _594  and  _595
REMARK  254  A    between atoms: _601  and  _603
REMARK  255  A    between atoms: _603  and  _604
REMARK  256  A    between atoms: _603  and  _606
REMARK  257  A    between atoms: _606  and  _607
REMARK  258  A    between atoms: _610  and  _612
REMARK  259  A    between atoms: _612  and  _613
REMARK  260  A    between atoms: _612  and  _615
REMARK  261  A    between atoms: _618  and  _620
REMARK  262  A    between atoms: _620  and  _621
REMARK  263  A    between atoms: _620  and  _623
REMARK  264  A    between atoms: _623  and  _624
REMARK  265  A    between atoms: _624  and  _625
REMARK  266  A    between atoms: _627  and  _629
REMARK  267  A    between atoms: _629  and  _630
REMARK  268  A    between atoms: _632  and  _634
REMARK  269  A    between atoms: _634  and  _635
REMARK  270  A    between atoms: _634  and  _637
REMARK  271  A    between atoms: _637  and  _638
REMARK  272  A    between atoms: _641  and  _643
REMARK  273  A    between atoms: _643  and  _644
REMARK  274  A    between atoms: _643  and  _646
REMARK  275  A    between atoms: _646  and  _647
REMARK  276  A    between atoms: _647  and  _648
REMARK  277  A    between atoms: _648  and  _649
REMARK  278  A    between atoms: _649  and  _650
REMARK  279  A    between atoms: _654  and  _656
REMARK  280  A    between atoms: _656  and  _657
REMARK  281  A    between atoms: _656  and  _659
REMARK                            x       y       z     vdW  Elec       q    Type
REMARK                         _______ _______ _______ _____ _____    ______ ____
ROOT
ATOM      1  CA  PHE A   3      16.826  17.993  25.262  0.00  0.00    +0.153 C 
ENDROOT
BRANCH   1   4
ATOM      2  C   ALA A   2      17.318  19.274  27.266  0.00  0.00    +0.241 C 
ATOM      3  O   ALA A   2      17.347  18.269  27.973  0.00  0.00    -0.273 OA
ATOM      4  N   PHE A   3      17.041  19.241  25.966  0.00  0.00    -0.297 N 
ATOM      5  H   PHE A   3      16.977  20.136  25.440  0.00  0.00    +0.150 HD
BRANCH   2   6
ATOM      6  CA  ALA A   2      17.582  20.652  27.865  0.00  0.00    +0.149 C 
ATOM      7  CB  ALA A   2      19.096  20.863  28.061  0.00  0.00    +0.031 C 
BRANCH   6   9
ATOM      8  C   PHE A   1      15.703  21.400  29.196  0.00  0.00    +0.239 C 
ATOM      9  N   ALA A   2      16.884  20.793  29.138  0.00  0.00    -0.297 N 
ATOM     10  H   ALA A   2      17.314  20.416  30.007  0.00  0.00    +0.150 HD
ATOM     11  O   PHE A   1      15.135  21.845  28.201  0.00  0.00    -0.274 OA
BRANCH   8  12
ATOM     12  CA  PHE A   1      15.049  21.489  30.559  0.00  0.00    +0.149 C 
BRANCH  12  13
ATOM     13  N   PHE A   1      14.191  22.673  30.669  0.00  0.00    -0.238 NA
ATOM     14  H   PHE A   1      13.445  22.818  29.959  0.00  0.00    +0.142 HD
ENDBRANCH  12  13
BRANCH  12  15
ATOM     15  CB  PHE A   1      14.205  20.223  30.768  0.00  0.00    +0.053 C 
BRANCH  15  16
ATOM     16  CG  PHE A   1      13.442  20.217  32.057  0.00  0.00    -0.020 A 
ATOM     17  CD2 PHE A   1      13.938  19.571  33.174  0.00  0.00    -0.004 A 
ATOM     18  CE2 PHE A   1      13.243  19.594  34.379  0.00  0.00    -0.000 A 
ATOM     19  CZ  PHE A   1      12.037  20.272  34.465  0.00  0.00    -0.000 A 
ATOM     20  CE1 PHE A   1      11.534  20.922  33.350  0.00  0.00    -0.000 A 
ATOM     21  CD1 PHE A   1      12.232  20.891  32.157  0.00  0.00    -0.004 A 
ENDBRANCH  15  16
ENDBRANCH  12  15
ENDBRANCH   8  12
ENDBRANCH   6   9
ENDBRANCH   2   6
ENDBRANCH   1   4
BRANCH   1  22
ATOM     22  C   PHE A   3      18.184  17.324  25.113  0.00  0.00    +0.241 C 
ATOM     23  N   GLN A   4      18.199  15.998  25.150  0.00  0.00    -0.298 N 
ATOM     24  H   GLN A   4      17.317  15.473  25.314  0.00  0.00    +0.150 HD
ATOM     25  O   PHE A   3      19.208  17.998  24.963  0.00  0.00    -0.273 OA
BRANCH  23  26
ATOM     26  CA  GLN A   4      19.449  15.278  24.961  0.00  0.00    +0.137 C 
BRANCH  26  27
ATOM     27  C   GLN A   4      19.774  15.363  23.471  0.00  0.00    +0.227 C 
ATOM     28  O   GLN A   4      18.897  15.635  22.640  0.00  0.00    -0.286 OA
ENDBRANCH  26  27
BRANCH  26  29
ATOM     29  CB  GLN A   4      19.314  13.820  25.391  0.00  0.00    +0.037 C 
BRANCH  29  30
ATOM     30  CG  GLN A   4      19.117  13.608  26.878  0.00  0.00    +0.087 C 
BRANCH  30  31
ATOM     31  CD  GLN A   4      19.284  12.151  27.265  0.00  0.00    +0.219 C 
ATOM     32  NE2 GLN A   4      18.167  11.450  27.441  0.00  0.00    -0.329 N 
ATOM     33 HE21 GLN A   4      18.220  10.444  27.700  0.00  0.00    +0.145 HD
ATOM     34 HE22 GLN A   4      17.241  11.908  27.320  0.00  0.00    +0.145 HD
ATOM     35  OE1 GLN A   4      20.402  11.659  27.396  0.00  0.00    -0.275 OA
ENDBRANCH  30  31
ENDBRANCH  29  30
ENDBRANCH  26  29
ENDBRANCH  23  26
ENDBRANCH   1  22
BRANCH   1  36
ATOM     36  CB  PHE A   3      16.275  18.251  23.854  0.00  0.00    +0.055 C 
BRANCH  36  37
ATOM     37  CG  PHE A   3      14.782  18.396  23.794  0.00  0.00    -0.020 A 
ATOM     38  CD2 PHE A   3      13.960  17.339  24.156  0.00  0.00    -0.004 A 
ATOM     39  CE2 PHE A   3      12.590  17.450  24.075  0.00  0.00    -0.000 A 
ATOM     40  CZ  PHE A   3      12.012  18.626  23.635  0.00  0.00    -0.000 A 
ATOM     41  CE1 PHE A   3      12.813  19.693  23.272  0.00  0.00    -0.000 A 
ATOM     42  CD1 PHE A   3      14.199  19.574  23.356  0.00  0.00    -0.004 A 
ENDBRANCH  36  37
ENDBRANCH   1  36
TORSDOF 15
REMARK  Name = ../refined-set-2016/2yki/2yki_pocket.pdb
REMARK  281 active torsions:
REMARK  status: ('A' for Active; 'I' for Inactive)
REMARK    1  A    between atoms: _1  and  _3
REMARK    2  A    between atoms: _3  and  _4
REMARK    3  A    between atoms: _3  and  _6
REMARK    4  A    between atoms: _6  and  _7
REMARK    5  A    between atoms: _13  and  _15
REMARK    6  A    between atoms: _15  and  _16
REMARK    7  A    between atoms: _19  and  _21
REMARK    8  A    between atoms: _21  and  _22
REMARK    9  A    between atoms: _21  and  _24
REMARK   10  A    between atoms: _24  and  _25
REMARK   11  A    between atoms: _31  and  _33
REMARK   12  A    between atoms: _33  and  _34
REMARK   13  A    between atoms: _33  and  _36
REMARK   14  A    between atoms: _36  and  _37
REMARK   15  A    between atoms: _37  and  _38
REMARK   16  A    between atoms: _43  and  _45
REMARK   17  A    between atoms: _45  and  _46
REMARK   18  A    between atoms: _45  and  _48
REMARK   19  A    between atoms: _48  and  _49
REMARK   20  A    between atoms: _52  and  _54
REMARK   21  A    between atoms: _54  and  _55
REMARK   22  A    between atoms: _58  and  _60
REMARK   23  A    between atoms: _60  and  _61
REMARK   24  A    between atoms: _60  and  _63
REMARK   25  A    between atoms: _63  and  _64
REMARK   26  A    between atoms: _67  and  _69
REMARK   27  A    between atoms: _69  and  _70
REMARK   28  A    between atoms: _69  and  _72
REMARK   29  A    between atoms: _72  and  _73
REMARK   30  A    between atoms: _73  and  _74
REMARK   31  A    between atoms: _76  and  _78
REMARK   32  A    between atoms: _78  and  _79
REMARK   33  A    between atoms: _78  and  _81
REMARK   34  A    between atoms: _81  and  _82
REMARK   35  A    between atoms: _82  and  _83
REMARK   36  A    between atoms: _86  and  _88
REMARK   37  A    between atoms: _88  and  _89
REMARK   38  A    between atoms: _88  and  _91
REMARK   39  A    between atoms: _91  and  _92
REMARK   40  A    between atoms: _95  and  _97
REMARK   41  A    between atoms: _97  and  _98
REMARK   42  A    between atoms: _97  and  _100
REMARK   43  A    between atoms: _100  and  _101
REMARK   44  A    between atoms: _104  and  _106
REMARK   45  A    between atoms: _106  and  _107
REMARK   46  A    between atoms: _106  and  _109
REMARK   47  A    between atoms: _109  and  _110
REMARK   48  A    between atoms: _112  and  _114
REMARK   49  A    between atoms: _114  and  _115
REMARK   50  A    between atoms: _114  and  _117
REMARK   51  A    between atoms: _117  and  _118
REMARK   52  A    between atoms: _123  and  _125
REMARK   53  A    between atoms: _125  and  _126
REMARK   54  A    between atoms: _125  and  _128
REMARK   55  A    between atoms: _128  and  _129
REMARK   56  A    between atoms: _131  and  _133
REMARK   57  A    between atoms: _133  and  _134
REMARK   58  A    between atoms: _133  and  _136
REMARK   59  A    between atoms: _136  and  _137
REMARK   60  A    between atoms: _139  and  _141
REMARK   61  A    between atoms: _141  and  _142
REMARK   62  A    between atoms: _141  and  _144
REMARK   63  A    between atoms: _144  and  _145
REMARK   64  A    between atoms: _148  and  _150
REMARK   65  A    between atoms: _150  and  _151
REMARK   66  A    between atoms: _154  and  _156
REMARK   67  A    between atoms: _156  and  _157
REMARK   68  A    between atoms: _156  and  _159
REMARK   69  A    between atoms: _159  and  _160
REMARK   70  A    between atoms: _163  and  _165
REMARK   71  A    between atoms: _165  and  _166
REMARK   72  A    between atoms: _165  and  _168
REMARK   73  A    between atoms: _168  and  _169
REMARK   74  A    between atoms: _169  and  _170
REMARK   75  A    between atoms: _170  and  _171
REMARK   76  A    between atoms: _171  and  _172
REMARK   77  A    between atoms: _176  and  _178
REMARK   78  A    between atoms: _178  and  _179
REMARK   79  A    between atoms: _178  and  _181
REMARK   80  A    between atoms: _181  and  _182
REMARK   81  A    between atoms: _185  and  _187
REMARK   82  A    between atoms: _187  and  _188
REMARK   83  A    between atoms: _187  and  _190
REMARK   84  A    between atoms: _190  and  _191
REMARK   85  A    between atoms: _194  and  _196
REMARK   86  A    between atoms: _196  and  _197
REMARK   87  A    between atoms: _196  and  _199
REMARK   88  A    between atoms: _202  and  _204
REMARK   89  A    between atoms: _204  and  _205
REMARK   90  A    between atoms: _204  and  _207
REMARK   91  A    between atoms: _207  and  _208
REMARK   92  A    between atoms: _211  and  _213
REMARK   93  A    between atoms: _213  and  _214
REMARK   94  A    between atoms: _213  and  _216
REMARK   95  A    between atoms: _216  and  _217
REMARK   96  A    between atoms: _220  and  _222
REMARK   97  A    between atoms: _222  and  _223
REMARK   98  A    between atoms: _225  and  _227
REMARK   99  A    between atoms: _227  and  _228
REMARK  100  A    between atoms: _227  and  _230
REMARK  101  A    between atoms: _230  and  _231
REMARK  102  A    between atoms: _234  and  _236
REMARK  103  A    between atoms: _236  and  _237
REMARK  104  A    between atoms: _239  and  _241
REMARK  105  A    between atoms: _241  and  _242
REMARK  106  A    between atoms: _241  and  _244
REMARK  107  A    between atoms: _244  and  _245
REMARK  108  A    between atoms: _245  and  _246
REMARK  109  A    between atoms: _248  and  _250
REMARK  110  A    between atoms: _250  and  _251
REMARK  111  A    between atoms: _250  and  _253
REMARK  112  A    between atoms: _253  and  _254
REMARK  113  A    between atoms: _257  and  _259
REMARK  114  A    between atoms: _259  and  _260
REMARK  115  A    between atoms: _259  and  _262
REMARK  116  A    between atoms: _262  and  _263
REMARK  117  A    between atoms: _263  and  _264
REMARK  118  A    between atoms: _264  and  _265
REMARK  119  A    between atoms: _265  and  _266
REMARK  120  A    between atoms: _270  and  _272
REMARK  121  A    between atoms: _272  and  _273
REMARK  122  A    between atoms: _276  and  _278
REMARK  123  A    between atoms: _278  and  _279
REMARK  124  A    between atoms: _278  and  _281
REMARK  125  A    between atoms: _281  and  _282
REMARK  126  A    between atoms: _285  and  _287
REMARK  127  A    between atoms: _287  and  _288
REMARK  128  A    between atoms: _287  and  _290
REMARK  129  A    between atoms: _290  and  _291
REMARK  130  A    between atoms: _294  and  _296
REMARK  131  A    between atoms: _296  and  _297
REMARK  132  A    between atoms: _296  and  _299
REMARK  133  A    between atoms: _299  and  _300
REMARK  134  A    between atoms: _303  and  _305
REMARK  135  A    between atoms: _305  and  _306
REMARK  136  A    between atoms: _305  and  _308
REMARK  137  A    between atoms: _308  and  _309
REMARK  138  A    between atoms: _314  and  _316
REMARK  139  A    between atoms: _316  and  _317
REMARK  140  A    between atoms: _316  and  _319
REMARK  141  A    between atoms: _319  and  _320
REMARK  142  A    between atoms: _325  and  _327
REMARK  143  A    between atoms: _327  and  _328
REMARK  144  A    between atoms: _327  and  _330
REMARK  145  A    between atoms: _330  and  _331
REMARK  146  A    between atoms: _334  and  _336
REMARK  147  A    between atoms: _336  and  _337
REMARK  148  A    between atoms: _339  and  _341
REMARK  149  A    between atoms: _341  and  _342
REMARK  150  A    between atoms: _341  and  _344
REMARK  151  A    between atoms: _344  and  _345
REMARK  152  A    between atoms: _348  and  _350
REMARK  153  A    between atoms: _350  and  _351
REMARK  154  A    between atoms: _350  and  _353
REMARK  155  A    between atoms: _353  and  _354
REMARK  156  A    between atoms: _357  and  _359
REMARK  157  A    between atoms: _359  and  _360
REMARK  158  A    between atoms: _363  and  _365
REMARK  159  A    between atoms: _365  and  _366
REMARK  160  A    between atoms: _365  and  _368
REMARK  161  A    between atoms: _368  and  _369
REMARK  162  A    between atoms: _369  and  _370
REMARK  163  A    between atoms: _370  and  _371
REMARK  164  A    between atoms: _371  and  _372
REMARK  165  A    between atoms: _376  and  _378
REMARK  166  A    between atoms: _378  and  _379
REMARK  167  A    between atoms: _378  and  _381
REMARK  168  A    between atoms: _381  and  _382
REMARK  169  A    between atoms: _384  and  _386
REMARK  170  A    between atoms: _386  and  _387
REMARK  171  A    between atoms: _389  and  _391
REMARK  172  A    between atoms: _391  and  _392
REMARK  173  A    between atoms: _391  and  _394
REMARK  174  A    between atoms: _394  and  _395
REMARK  175  A    between atoms: _398  and  _400
REMARK  176  A    between atoms: _400  and  _401
REMARK  177  A    between atoms: _400  and  _403
REMARK  178  A    between atoms: _403  and  _404
REMARK  179  A    between atoms: _410  and  _412
REMARK  180  A    between atoms: _412  and  _413
REMARK  181  A    between atoms: _415  and  _417
REMARK  182  A    between atoms: _417  and  _418
REMARK  183  A    between atoms: _417  and  _420
REMARK  184  A    between atoms: _423  and  _425
REMARK  185  A    between atoms: _425  and  _426
REMARK  186  A    between atoms: _428  and  _430
REMARK  187  A    between atoms: _430  and  _431
REMARK  188  A    between atoms: _430  and  _433
REMARK  189  A    between atoms: _433  and  _434
REMARK  190  A    between atoms: _440  and  _442
REMARK  191  A    between atoms: _442  and  _443
REMARK  192  A    between atoms: _442  and  _445
REMARK  193  A    between atoms: _445  and  _446
REMARK  194  A    between atoms: _451  and  _452
REMARK  195  A    between atoms: _454  and  _456
REMARK  196  A    between atoms: _456  and  _457
REMARK  197  A    between atoms: _456  and  _459
REMARK  198  A    between atoms: _459  and  _460
REMARK  199  A    between atoms: _462  and  _464
REMARK  200  A    between atoms: _464  and  _465
REMARK  201  A    between atoms: _468  and  _470
REMARK  202  A    between atoms: _470  and  _471
REMARK  203  A    between atoms: _470  and  _473
REMARK  204  A    between atoms: _473  and  _474
REMARK  205  A    between atoms: _479  and  _480
REMARK  206  A    between atoms: _482  and  _484
REMARK  207  A    between atoms: _484  and  _485
REMARK  208  A    between atoms: _484  and  _487
REMARK  209  A    between atoms: _490  and  _492
REMARK  210  A    between atoms: _492  and  _493
REMARK  211  A    between atoms: _492  and  _495
REMARK  212  A    between atoms: _495  and  _496
REMARK  213  A    between atoms: _499  and  _501
REMARK  214  A    between atoms: _501  and  _502
REMARK  215  A    between atoms: _501  and  _504
REMARK  216  A    between atoms: _507  and  _509
REMARK  217  A    between atoms: _509  and  _510
REMARK  218  A    between atoms: _509  and  _512
REMARK  219  A    between atoms: _512  and  _513
REMARK  220  A    between atoms: _516  and  _518
REMARK  221  A    between atoms: _518  and  _519
REMARK  222  A    between atoms: _518  and  _521
REMARK  223  A    between atoms: _521  and  _522
REMARK  224  A    between atoms: _525  and  _527
REMARK  225  A    between atoms: _527  and  _528
REMARK  226  A    between atoms: _527  and  _530
REMARK  227  A    between atoms: _530  and  _531
REMARK  228  A    between atoms: _531  and  _532
REMARK  229  A    between atoms: _532  and  _533
REMARK  230  A    between atoms: _533  and  _534
REMARK  231  A    between atoms: _538  and  _540
REMARK  232  A    between atoms: _540  and  _541
REMARK  233  A    between atoms: _540  and  _543
REMARK  234  A    between atoms: _543  and  _544
REMARK  235  A    between atoms: _549  and  _551
REMARK  236  A    between atoms: _551  and  _552
REMARK  237  A    between atoms: _555  and  _557
REMARK  238  A    between atoms: _557  and  _558
REMARK  239  A    between atoms: _557  and  _560
REMARK  240  A    between atoms: _560  and  _561
REMARK  241  A    between atoms: _571  and  _573
REMARK  242  A    between atoms: _573  and  _574
REMARK  243  A    between atoms: _573  and  _576
REMARK  244  A    between atoms: _576  and  _577
REMARK  245  A    between atoms: _577  and  _578
REMARK  246  A    between atoms: _581  and  _583
REMARK  247  A    between atoms: _583  and  _584
REMARK  248  A    between atoms: _583  and  _586
REMARK  249  A    between atoms: _586  and  _587
REMARK  250  A    between atoms: _589  and  _591
REMARK  251  A    between atoms: _591  and  _592
REMARK  252  A    between atoms: _591  and  _594
REMARK  253  A    between atoms: _594  and  _595
REMARK  254  A    between atoms: _601  and  _603
REMARK  255  A    between atoms: _603  and  _604
REMARK  256  A    between atoms: _603  and  _606
REMARK  257  A    between atoms: _606  and  _607
REMARK  258  A    between atoms: _610  and  _612
REMARK  259  A    between atoms: _612  and  _613
REMARK  260  A    between atoms: _612  and  _615
REMARK  261  A    between atoms: _618  and  _620
REMARK  262  A    between atoms: _620  and  _621
REMARK  263  A    between atoms: _620  and  _623
REMARK  264  A    between atoms: _623  and  _624
REMARK  265  A    between atoms: _624  and  _625
REMARK  266  A    between atoms: _627  and  _629
REMARK  267  A    between atoms: _629  and  _630
REMARK  268  A    between atoms: _632  and  _634
REMARK  269  A    between atoms: _634  and  _635
REMARK  270  A    between atoms: _634  and  _637
REMARK  271  A    between atoms: _637  and  _638
REMARK  272  A    between atoms: _641  and  _643
REMARK  273  A    between atoms: _643  and  _644
REMARK  274  A    between atoms: _643  and  _646
REMARK  275  A    between atoms: _646  and  _647
REMARK  276  A    between atoms: _647  and  _648
REMARK  277  A    between atoms: _648  and  _649
REMARK  278  A    between atoms: _649  and  _650
REMARK  279  A    between atoms: _654  and  _656
REMARK  280  A    between atoms: _656  and  _657
REMARK  281  A    between atoms: _656  and  _659
REMARK                            x       y       z     vdW  Elec       q    Type
REMARK                         _______ _______ _______ _____ _____    ______ ____
ROOT
ATOM      1  C   ILE A   1      16.170  15.214  19.745  0.00  0.00    +0.238 C 
ATOM      2  N   ALA A   2      17.195  15.969  20.126  0.00  0.00    -0.298 N 
ATOM      3  H   ALA A   2      17.888  15.606  20.812  0.00  0.00    +0.150 HD
ATOM      4  O   ILE A   1      15.336  15.602  18.932  0.00  0.00    -0.274 OA
ENDROOT
BRANCH   2   5
ATOM      5  CA  ALA A   2      17.339  17.309  19.574  0.00  0.00    +0.137 C 
ATOM      6  CB  ALA A   2      18.483  18.044  20.261  0.00  0.00    +0.030 C 
BRANCH   5   7
ATOM      7  C   ALA A   2      17.601  17.204  18.076  0.00  0.00    +0.227 C 
ATOM      8  O   ALA A   2      17.034  17.950  17.275  0.00  0.00    -0.286 OA
ENDBRANCH   5   7
ENDBRANCH   2   5
BRANCH   1   9
ATOM      9  CA  ILE A   1      16.064  13.817  20.337  0.00  0.00    +0.145 C 
BRANCH   9  10
ATOM     10  N   ILE A   1      17.374  13.236  20.628  0.00  0.00    -0.238 NA
ATOM     11  H   ILE A   1      17.629  13.018  21.612  0.00  0.00    +0.142 HD
ENDBRANCH   9  10
BRANCH   9  12
ATOM     12  CB  ILE A   1      15.154  13.860  21.602  0.00  0.00    +0.025 C 
ATOM     13  CG2 ILE A   1      15.770  14.749  22.676  0.00  0.00    +0.002 C 
BRANCH  12  14
ATOM     14  CG1 ILE A   1      13.766  14.393  21.225  0.00  0.00    +0.002 C 
ATOM     15  CD1 ILE A   1      13.065  13.584  20.154  0.00  0.00    +0.000 C 
ENDBRANCH  12  14
ENDBRANCH   9  12
ENDBRANCH   1   9
TORSDOF 6
REMARK  Name = ../refined-set-2016/2yki/2yki_pocket.pdb
REMARK  281 active torsions:
REMARK  status: ('A' for Active; 'I' for Inactive)
REMARK    1  A    between atoms: _1  and  _3
REMARK    2  A    between atoms: _3  and  _4
REMARK    3  A    between atoms: _3  and  _6
REMARK    4  A    between atoms: _6  and  _7
REMARK    5  A    between atoms: _13  and  _15
REMARK    6  A    between atoms: _15  and  _16
REMARK    7  A    between atoms: _19  and  _21
REMARK    8  A    between atoms: _21  and  _22
REMARK    9  A    between atoms: _21  and  _24
REMARK   10  A    between atoms: _24  and  _25
REMARK   11  A    between atoms: _31  and  _33
REMARK   12  A    between atoms: _33  and  _34
REMARK   13  A    between atoms: _33  and  _36
REMARK   14  A    between atoms: _36  and  _37
REMARK   15  A    between atoms: _37  and  _38
REMARK   16  A    between atoms: _43  and  _45
REMARK   17  A    between atoms: _45  and  _46
REMARK   18  A    between atoms: _45  and  _48
REMARK   19  A    between atoms: _48  and  _49
REMARK   20  A    between atoms: _52  and  _54
REMARK   21  A    between atoms: _54  and  _55
REMARK   22  A    between atoms: _58  and  _60
REMARK   23  A    between atoms: _60  and  _61
REMARK   24  A    between atoms: _60  and  _63
REMARK   25  A    between atoms: _63  and  _64
REMARK   26  A    between atoms: _67  and  _69
REMARK   27  A    between atoms: _69  and  _70
REMARK   28  A    between atoms: _69  and  _72
REMARK   29  A    between atoms: _72  and  _73
REMARK   30  A    between atoms: _73  and  _74
REMARK   31  A    between atoms: _76  and  _78
REMARK   32  A    between atoms: _78  and  _79
REMARK   33  A    between atoms: _78  and  _81
REMARK   34  A    between atoms: _81  and  _82
REMARK   35  A    between atoms: _82  and  _83
REMARK   36  A    between atoms: _86  and  _88
REMARK   37  A    between atoms: _88  and  _89
REMARK   38  A    between atoms: _88  and  _91
REMARK   39  A    between atoms: _91  and  _92
REMARK   40  A    between atoms: _95  and  _97
REMARK   41  A    between atoms: _97  and  _98
REMARK   42  A    between atoms: _97  and  _100
REMARK   43  A    between atoms: _100  and  _101
REMARK   44  A    between atoms: _104  and  _106
REMARK   45  A    between atoms: _106  and  _107
REMARK   46  A    between atoms: _106  and  _109
REMARK   47  A    between atoms: _109  and  _110
REMARK   48  A    between atoms: _112  and  _114
REMARK   49  A    between atoms: _114  and  _115
REMARK   50  A    between atoms: _114  and  _117
REMARK   51  A    between atoms: _117  and  _118
REMARK   52  A    between atoms: _123  and  _125
REMARK   53  A    between atoms: _125  and  _126
REMARK   54  A    between atoms: _125  and  _128
REMARK   55  A    between atoms: _128  and  _129
REMARK   56  A    between atoms: _131  and  _133
REMARK   57  A    between atoms: _133  and  _134
REMARK   58  A    between atoms: _133  and  _136
REMARK   59  A    between atoms: _136  and  _137
REMARK   60  A    between atoms: _139  and  _141
REMARK   61  A    between atoms: _141  and  _142
REMARK   62  A    between atoms: _141  and  _144
REMARK   63  A    between atoms: _144  and  _145
REMARK   64  A    between atoms: _148  and  _150
REMARK   65  A    between atoms: _150  and  _151
REMARK   66  A    between atoms: _154  and  _156
REMARK   67  A    between atoms: _156  and  _157
REMARK   68  A    between atoms: _156  and  _159
REMARK   69  A    between atoms: _159  and  _160
REMARK   70  A    between atoms: _163  and  _165
REMARK   71  A    between atoms: _165  and  _166
REMARK   72  A    between atoms: _165  and  _168
REMARK   73  A    between atoms: _168  and  _169
REMARK   74  A    between atoms: _169  and  _170
REMARK   75  A    between atoms: _170  and  _171
REMARK   76  A    between atoms: _171  and  _172
REMARK   77  A    between atoms: _176  and  _178
REMARK   78  A    between atoms: _178  and  _179
REMARK   79  A    between atoms: _178  and  _181
REMARK   80  A    between atoms: _181  and  _182
REMARK   81  A    between atoms: _185  and  _187
REMARK   82  A    between atoms: _187  and  _188
REMARK   83  A    between atoms: _187  and  _190
REMARK   84  A    between atoms: _190  and  _191
REMARK   85  A    between atoms: _194  and  _196
REMARK   86  A    between atoms: _196  and  _197
REMARK   87  A    between atoms: _196  and  _199
REMARK   88  A    between atoms: _202  and  _204
REMARK   89  A    between atoms: _204  and  _205
REMARK   90  A    between atoms: _204  and  _207
REMARK   91  A    between atoms: _207  and  _208
REMARK   92  A    between atoms: _211  and  _213
REMARK   93  A    between atoms: _213  and  _214
REMARK   94  A    between atoms: _213  and  _216
REMARK   95  A    between atoms: _216  and  _217
REMARK   96  A    between atoms: _220  and  _222
REMARK   97  A    between atoms: _222  and  _223
REMARK   98  A    between atoms: _225  and  _227
REMARK   99  A    between atoms: _227  and  _228
REMARK  100  A    between atoms: _227  and  _230
REMARK  101  A    between atoms: _230  and  _231
REMARK  102  A    between atoms: _234  and  _236
REMARK  103  A    between atoms: _236  and  _237
REMARK  104  A    between atoms: _239  and  _241
REMARK  105  A    between atoms: _241  and  _242
REMARK  106  A    between atoms: _241  and  _244
REMARK  107  A    between atoms: _244  and  _245
REMARK  108  A    between atoms: _245  and  _246
REMARK  109  A    between atoms: _248  and  _250
REMARK  110  A    between atoms: _250  and  _251
REMARK  111  A    between atoms: _250  and  _253
REMARK  112  A    between atoms: _253  and  _254
REMARK  113  A    between atoms: _257  and  _259
REMARK  114  A    between atoms: _259  and  _260
REMARK  115  A    between atoms: _259  and  _262
REMARK  116  A    between atoms: _262  and  _263
REMARK  117  A    between atoms: _263  and  _264
REMARK  118  A    between atoms: _264  and  _265
REMARK  119  A    between atoms: _265  and  _266
REMARK  120  A    between atoms: _270  and  _272
REMARK  121  A    between atoms: _272  and  _273
REMARK  122  A    between atoms: _276  and  _278
REMARK  123  A    between atoms: _278  and  _279
REMARK  124  A    between atoms: _278  and  _281
REMARK  125  A    between atoms: _281  and  _282
REMARK  126  A    between atoms: _285  and  _287
REMARK  127  A    between atoms: _287  and  _288
REMARK  128  A    between atoms: _287  and  _290
REMARK  129  A    between atoms: _290  and  _291
REMARK  130  A    between atoms: _294  and  _296
REMARK  131  A    between atoms: _296  and  _297
REMARK  132  A    between atoms: _296  and  _299
REMARK  133  A    between atoms: _299  and  _300
REMARK  134  A    between atoms: _303  and  _305
REMARK  135  A    between atoms: _305  and  _306
REMARK  136  A    between atoms: _305  and  _308
REMARK  137  A    between atoms: _308  and  _309
REMARK  138  A    between atoms: _314  and  _316
REMARK  139  A    between atoms: _316  and  _317
REMARK  140  A    between atoms: _316  and  _319
REMARK  141  A    between atoms: _319  and  _320
REMARK  142  A    between atoms: _325  and  _327
REMARK  143  A    between atoms: _327  and  _328
REMARK  144  A    between atoms: _327  and  _330
REMARK  145  A    between atoms: _330  and  _331
REMARK  146  A    between atoms: _334  and  _336
REMARK  147  A    between atoms: _336  and  _337
REMARK  148  A    between atoms: _339  and  _341
REMARK  149  A    between atoms: _341  and  _342
REMARK  150  A    between atoms: _341  and  _344
REMARK  151  A    between atoms: _344  and  _345
REMARK  152  A    between atoms: _348  and  _350
REMARK  153  A    between atoms: _350  and  _351
REMARK  154  A    between atoms: _350  and  _353
REMARK  155  A    between atoms: _353  and  _354
REMARK  156  A    between atoms: _357  and  _359
REMARK  157  A    between atoms: _359  and  _360
REMARK  158  A    between atoms: _363  and  _365
REMARK  159  A    between atoms: _365  and  _366
REMARK  160  A    between atoms: _365  and  _368
REMARK  161  A    between atoms: _368  and  _369
REMARK  162  A    between atoms: _369  and  _370
REMARK  163  A    between atoms: _370  and  _371
REMARK  164  A    between atoms: _371  and  _372
REMARK  165  A    between atoms: _376  and  _378
REMARK  166  A    between atoms: _378  and  _379
REMARK  167  A    between atoms: _378  and  _381
REMARK  168  A    between atoms: _381  and  _382
REMARK  169  A    between atoms: _384  and  _386
REMARK  170  A    between atoms: _386  and  _387
REMARK  171  A    between atoms: _389  and  _391
REMARK  172  A    between atoms: _391  and  _392
REMARK  173  A    between atoms: _391  and  _394
REMARK  174  A    between atoms: _394  and  _395
REMARK  175  A    between atoms: _398  and  _400
REMARK  176  A    between atoms: _400  and  _401
REMARK  177  A    between atoms: _400  and  _403
REMARK  178  A    between atoms: _403  and  _404
REMARK  179  A    between atoms: _410  and  _412
REMARK  180  A    between atoms: _412  and  _413
REMARK  181  A    between atoms: _415  and  _417
REMARK  182  A    between atoms: _417  and  _418
REMARK  183  A    between atoms: _417  and  _420
REMARK  184  A    between atoms: _423  and  _425
REMARK  185  A    between atoms: _425  and  _426
REMARK  186  A    between atoms: _428  and  _430
REMARK  187  A    between atoms: _430  and  _431
REMARK  188  A    between atoms: _430  and  _433
REMARK  189  A    between atoms: _433  and  _434
REMARK  190  A    between atoms: _440  and  _442
REMARK  191  A    between atoms: _442  and  _443
REMARK  192  A    between atoms: _442  and  _445
REMARK  193  A    between atoms: _445  and  _446
REMARK  194  A    between atoms: _451  and  _452
REMARK  195  A    between atoms: _454  and  _456
REMARK  196  A    between atoms: _456  and  _457
REMARK  197  A    between atoms: _456  and  _459
REMARK  198  A    between atoms: _459  and  _460
REMARK  199  A    between atoms: _462  and  _464
REMARK  200  A    between atoms: _464  and  _465
REMARK  201  A    between atoms: _468  and  _470
REMARK  202  A    between atoms: _470  and  _471
REMARK  203  A    between atoms: _470  and  _473
REMARK  204  A    between atoms: _473  and  _474
REMARK  205  A    between atoms: _479  and  _480
REMARK  206  A    between atoms: _482  and  _484
REMARK  207  A    between atoms: _484  and  _485
REMARK  208  A    between atoms: _484  and  _487
REMARK  209  A    between atoms: _490  and  _492
REMARK  210  A    between atoms: _492  and  _493
REMARK  211  A    between atoms: _492  and  _495
REMARK  212  A    between atoms: _495  and  _496
REMARK  213  A    between atoms: _499  and  _501
REMARK  214  A    between atoms: _501  and  _502
REMARK  215  A    between atoms: _501  and  _504
REMARK  216  A    between atoms: _507  and  _509
REMARK  217  A    between atoms: _509  and  _510
REMARK  218  A    between atoms: _509  and  _512
REMARK  219  A    between atoms: _512  and  _513
REMARK  220  A    between atoms: _516  and  _518
REMARK  221  A    between atoms: _518  and  _519
REMARK  222  A    between atoms: _518  and  _521
REMARK  223  A    between atoms: _521  and  _522
REMARK  224  A    between atoms: _525  and  _527
REMARK  225  A    between atoms: _527  and  _528
REMARK  226  A    between atoms: _527  and  _530
REMARK  227  A    between atoms: _530  and  _531
REMARK  228  A    between atoms: _531  and  _532
REMARK  229  A    between atoms: _532  and  _533
REMARK  230  A    between atoms: _533  and  _534
REMARK  231  A    between atoms: _538  and  _540
REMARK  232  A    between atoms: _540  and  _541
REMARK  233  A    between atoms: _540  and  _543
REMARK  234  A    between atoms: _543  and  _544
REMARK  235  A    between atoms: _549  and  _551
REMARK  236  A    between atoms: _551  and  _552
REMARK  237  A    between atoms: _555  and  _557
REMARK  238  A    between atoms: _557  and  _558
REMARK  239  A    between atoms: _557  and  _560
REMARK  240  A    between atoms: _560  and  _561
REMARK  241  A    between atoms: _571  and  _573
REMARK  242  A    between atoms: _573  and  _574
REMARK  243  A    between atoms: _573  and  _576
REMARK  244  A    between atoms: _576  and  _577
REMARK  245  A    between atoms: _577  and  _578
REMARK  246  A    between atoms: _581  and  _583
REMARK  247  A    between atoms: _583  and  _584
REMARK  248  A    between atoms: _583  and  _586
REMARK  249  A    between atoms: _586  and  _587
REMARK  250  A    between atoms: _589  and  _591
REMARK  251  A    between atoms: _591  and  _592
REMARK  252  A    between atoms: _591  and  _594
REMARK  253  A    between atoms: _594  and  _595
REMARK  254  A    between atoms: _601  and  _603
REMARK  255  A    between atoms: _603  and  _604
REMARK  256  A    between atoms: _603  and  _606
REMARK  257  A    between atoms: _606  and  _607
REMARK  258  A    between atoms: _610  and  _612
REMARK  259  A    between atoms: _612  and  _613
REMARK  260  A    between atoms: _612  and  _615
REMARK  261  A    between atoms: _618  and  _620
REMARK  262  A    between atoms: _620  and  _621
REMARK  263  A    between atoms: _620  and  _623
REMARK  264  A    between atoms: _623  and  _624
REMARK  265  A    between atoms: _624  and  _625
REMARK  266  A    between atoms: _627  and  _629
REMARK  267  A    between atoms: _629  and  _630
REMARK  268  A    between atoms: _632  and  _634
REMARK  269  A    between atoms: _634  and  _635
REMARK  270  A    between atoms: _634  and  _637
REMARK  271  A    between atoms: _637  and  _638
REMARK  272  A    between atoms: _641  and  _643
REMARK  273  A    between atoms: _643  and  _644
REMARK  274  A    between atoms: _643  and  _646
REMARK  275  A    between atoms: _646  and  _647
REMARK  276  A    between atoms: _647  and  _648
REMARK  277  A    between atoms: _648  and  _649
REMARK  278  A    between atoms: _649  and  _650
REMARK  279  A    between atoms: _654  and  _656
REMARK  280  A    between atoms: _656  and  _657
REMARK  281  A    between atoms: _656  and  _659
REMARK                            x       y       z     vdW  Elec       q    Type
REMARK                         _______ _______ _______ _____ _____    ______ ____
ROOT
ATOM      1  C   LEU A   1      14.564  15.426  15.207  0.00  0.00    +0.238 C 
ATOM      2  N   MET A   2      14.384  16.280  16.211  0.00  0.00    -0.298 N 
ATOM      3  H   MET A   2      14.877  16.118  17.112  0.00  0.00    +0.150 HD
ATOM      4  O   LEU A   1      13.990  15.536  14.130  0.00  0.00    -0.274 OA
ENDROOT
BRANCH   1   5
ATOM      5  CA  LEU A   1      15.517  14.272  15.463  0.00  0.00    +0.145 C 
BRANCH   5   6
ATOM      6  N   LEU A   1      16.730  14.751  16.128  0.00  0.00    -0.238 NA
ATOM      7  H   LEU A   1      16.955  14.422  17.088  0.00  0.00    +0.142 HD
ENDBRANCH   5   6
BRANCH   5   8
ATOM      8  CB  LEU A   1      14.801  13.226  16.312  0.00  0.00    +0.026 C 
BRANCH   8   9
ATOM      9  CG  LEU A   1      13.473  12.714  15.734  0.00  0.00    +0.002 C 
ATOM     10  CD2 LEU A   1      12.789  11.781  16.727  0.00  0.00    +0.000 C 
ATOM     11  CD1 LEU A   1      13.734  11.999  14.419  0.00  0.00    +0.000 C 
ENDBRANCH   8   9
ENDBRANCH   5   8
ENDBRANCH   1   5
BRANCH   2  12
ATOM     12  CA  MET A   2      13.506  17.443  16.074  0.00  0.00    +0.138 C 
BRANCH  12  13
ATOM     13  C   MET A   2      13.972  18.354  14.929  0.00  0.00    +0.227 C 
ATOM     14  O   MET A   2      13.147  18.882  14.186  0.00  0.00    -0.286 OA
ENDBRANCH  12  13
BRANCH  12  15
ATOM     15  CB  MET A   2      13.455  18.237  17.390  0.00  0.00    +0.039 C 
BRANCH  15  16
ATOM     16  CG  MET A   2      12.750  17.508  18.528  0.00  0.00    +0.060 C 
BRANCH  16  17
ATOM     17  SD  MET A   2      12.779  18.361  20.100  0.00  0.00    -0.139 S 
ATOM     18  CE  MET A   2      11.330  19.392  19.895  0.00  0.00    +0.069 C 
ENDBRANCH  16  17
ENDBRANCH  15  16
ENDBRANCH  12  15
ENDBRANCH   2  12
TORSDOF 9
REMARK  Name = ../refined-set-2016/2yki/2yki_pocket.pdb
REMARK  281 active torsions:
REMARK  status: ('A' for Active; 'I' for Inactive)
REMARK    1  A    between atoms: _1  and  _3
REMARK    2  A    between atoms: _3  and  _4
REMARK    3  A    between atoms: _3  and  _6
REMARK    4  A    between atoms: _6  and  _7
REMARK    5  A    between atoms: _13  and  _15
REMARK    6  A    between atoms: _15  and  _16
REMARK    7  A    between atoms: _19  and  _21
REMARK    8  A    between atoms: _21  and  _22
REMARK    9  A    between atoms: _21  and  _24
REMARK   10  A    between atoms: _24  and  _25
REMARK   11  A    between atoms: _31  and  _33
REMARK   12  A    between atoms: _33  and  _34
REMARK   13  A    between atoms: _33  and  _36
REMARK   14  A    between atoms: _36  and  _37
REMARK   15  A    between atoms: _37  and  _38
REMARK   16  A    between atoms: _43  and  _45
REMARK   17  A    between atoms: _45  and  _46
REMARK   18  A    between atoms: _45  and  _48
REMARK   19  A    between atoms: _48  and  _49
REMARK   20  A    between atoms: _52  and  _54
REMARK   21  A    between atoms: _54  and  _55
REMARK   22  A    between atoms: _58  and  _60
REMARK   23  A    between atoms: _60  and  _61
REMARK   24  A    between atoms: _60  and  _63
REMARK   25  A    between atoms: _63  and  _64
REMARK   26  A    between atoms: _67  and  _69
REMARK   27  A    between atoms: _69  and  _70
REMARK   28  A    between atoms: _69  and  _72
REMARK   29  A    between atoms: _72  and  _73
REMARK   30  A    between atoms: _73  and  _74
REMARK   31  A    between atoms: _76  and  _78
REMARK   32  A    between atoms: _78  and  _79
REMARK   33  A    between atoms: _78  and  _81
REMARK   34  A    between atoms: _81  and  _82
REMARK   35  A    between atoms: _82  and  _83
REMARK   36  A    between atoms: _86  and  _88
REMARK   37  A    between atoms: _88  and  _89
REMARK   38  A    between atoms: _88  and  _91
REMARK   39  A    between atoms: _91  and  _92
REMARK   40  A    between atoms: _95  and  _97
REMARK   41  A    between atoms: _97  and  _98
REMARK   42  A    between atoms: _97  and  _100
REMARK   43  A    between atoms: _100  and  _101
REMARK   44  A    between atoms: _104  and  _106
REMARK   45  A    between atoms: _106  and  _107
REMARK   46  A    between atoms: _106  and  _109
REMARK   47  A    between atoms: _109  and  _110
REMARK   48  A    between atoms: _112  and  _114
REMARK   49  A    between atoms: _114  and  _115
REMARK   50  A    between atoms: _114  and  _117
REMARK   51  A    between atoms: _117  and  _118
REMARK   52  A    between atoms: _123  and  _125
REMARK   53  A    between atoms: _125  and  _126
REMARK   54  A    between atoms: _125  and  _128
REMARK   55  A    between atoms: _128  and  _129
REMARK   56  A    between atoms: _131  and  _133
REMARK   57  A    between atoms: _133  and  _134
REMARK   58  A    between atoms: _133  and  _136
REMARK   59  A    between atoms: _136  and  _137
REMARK   60  A    between atoms: _139  and  _141
REMARK   61  A    between atoms: _141  and  _142
REMARK   62  A    between atoms: _141  and  _144
REMARK   63  A    between atoms: _144  and  _145
REMARK   64  A    between atoms: _148  and  _150
REMARK   65  A    between atoms: _150  and  _151
REMARK   66  A    between atoms: _154  and  _156
REMARK   67  A    between atoms: _156  and  _157
REMARK   68  A    between atoms: _156  and  _159
REMARK   69  A    between atoms: _159  and  _160
REMARK   70  A    between atoms: _163  and  _165
REMARK   71  A    between atoms: _165  and  _166
REMARK   72  A    between atoms: _165  and  _168
REMARK   73  A    between atoms: _168  and  _169
REMARK   74  A    between atoms: _169  and  _170
REMARK   75  A    between atoms: _170  and  _171
REMARK   76  A    between atoms: _171  and  _172
REMARK   77  A    between atoms: _176  and  _178
REMARK   78  A    between atoms: _178  and  _179
REMARK   79  A    between atoms: _178  and  _181
REMARK   80  A    between atoms: _181  and  _182
REMARK   81  A    between atoms: _185  and  _187
REMARK   82  A    between atoms: _187  and  _188
REMARK   83  A    between atoms: _187  and  _190
REMARK   84  A    between atoms: _190  and  _191
REMARK   85  A    between atoms: _194  and  _196
REMARK   86  A    between atoms: _196  and  _197
REMARK   87  A    between atoms: _196  and  _199
REMARK   88  A    between atoms: _202  and  _204
REMARK   89  A    between atoms: _204  and  _205
REMARK   90  A    between atoms: _204  and  _207
REMARK   91  A    between atoms: _207  and  _208
REMARK   92  A    between atoms: _211  and  _213
REMARK   93  A    between atoms: _213  and  _214
REMARK   94  A    between atoms: _213  and  _216
REMARK   95  A    between atoms: _216  and  _217
REMARK   96  A    between atoms: _220  and  _222
REMARK   97  A    between atoms: _222  and  _223
REMARK   98  A    between atoms: _225  and  _227
REMARK   99  A    between atoms: _227  and  _228
REMARK  100  A    between atoms: _227  and  _230
REMARK  101  A    between atoms: _230  and  _231
REMARK  102  A    between atoms: _234  and  _236
REMARK  103  A    between atoms: _236  and  _237
REMARK  104  A    between atoms: _239  and  _241
REMARK  105  A    between atoms: _241  and  _242
REMARK  106  A    between atoms: _241  and  _244
REMARK  107  A    between atoms: _244  and  _245
REMARK  108  A    between atoms: _245  and  _246
REMARK  109  A    between atoms: _248  and  _250
REMARK  110  A    between atoms: _250  and  _251
REMARK  111  A    between atoms: _250  and  _253
REMARK  112  A    between atoms: _253  and  _254
REMARK  113  A    between atoms: _257  and  _259
REMARK  114  A    between atoms: _259  and  _260
REMARK  115  A    between atoms: _259  and  _262
REMARK  116  A    between atoms: _262  and  _263
REMARK  117  A    between atoms: _263  and  _264
REMARK  118  A    between atoms: _264  and  _265
REMARK  119  A    between atoms: _265  and  _266
REMARK  120  A    between atoms: _270  and  _272
REMARK  121  A    between atoms: _272  and  _273
REMARK  122  A    between atoms: _276  and  _278
REMARK  123  A    between atoms: _278  and  _279
REMARK  124  A    between atoms: _278  and  _281
REMARK  125  A    between atoms: _281  and  _282
REMARK  126  A    between atoms: _285  and  _287
REMARK  127  A    between atoms: _287  and  _288
REMARK  128  A    between atoms: _287  and  _290
REMARK  129  A    between atoms: _290  and  _291
REMARK  130  A    between atoms: _294  and  _296
REMARK  131  A    between atoms: _296  and  _297
REMARK  132  A    between atoms: _296  and  _299
REMARK  133  A    between atoms: _299  and  _300
REMARK  134  A    between atoms: _303  and  _305
REMARK  135  A    between atoms: _305  and  _306
REMARK  136  A    between atoms: _305  and  _308
REMARK  137  A    between atoms: _308  and  _309
REMARK  138  A    between atoms: _314  and  _316
REMARK  139  A    between atoms: _316  and  _317
REMARK  140  A    between atoms: _316  and  _319
REMARK  141  A    between atoms: _319  and  _320
REMARK  142  A    between atoms: _325  and  _327
REMARK  143  A    between atoms: _327  and  _328
REMARK  144  A    between atoms: _327  and  _330
REMARK  145  A    between atoms: _330  and  _331
REMARK  146  A    between atoms: _334  and  _336
REMARK  147  A    between atoms: _336  and  _337
REMARK  148  A    between atoms: _339  and  _341
REMARK  149  A    between atoms: _341  and  _342
REMARK  150  A    between atoms: _341  and  _344
REMARK  151  A    between atoms: _344  and  _345
REMARK  152  A    between atoms: _348  and  _350
REMARK  153  A    between atoms: _350  and  _351
REMARK  154  A    between atoms: _350  and  _353
REMARK  155  A    between atoms: _353  and  _354
REMARK  156  A    between atoms: _357  and  _359
REMARK  157  A    between atoms: _359  and  _360
REMARK  158  A    between atoms: _363  and  _365
REMARK  159  A    between atoms: _365  and  _366
REMARK  160  A    between atoms: _365  and  _368
REMARK  161  A    between atoms: _368  and  _369
REMARK  162  A    between atoms: _369  and  _370
REMARK  163  A    between atoms: _370  and  _371
REMARK  164  A    between atoms: _371  and  _372
REMARK  165  A    between atoms: _376  and  _378
REMARK  166  A    between atoms: _378  and  _379
REMARK  167  A    between atoms: _378  and  _381
REMARK  168  A    between atoms: _381  and  _382
REMARK  169  A    between atoms: _384  and  _386
REMARK  170  A    between atoms: _386  and  _387
REMARK  171  A    between atoms: _389  and  _391
REMARK  172  A    between atoms: _391  and  _392
REMARK  173  A    between atoms: _391  and  _394
REMARK  174  A    between atoms: _394  and  _395
REMARK  175  A    between atoms: _398  and  _400
REMARK  176  A    between atoms: _400  and  _401
REMARK  177  A    between atoms: _400  and  _403
REMARK  178  A    between atoms: _403  and  _404
REMARK  179  A    between atoms: _410  and  _412
REMARK  180  A    between atoms: _412  and  _413
REMARK  181  A    between atoms: _415  and  _417
REMARK  182  A    between atoms: _417  and  _418
REMARK  183  A    between atoms: _417  and  _420
REMARK  184  A    between atoms: _423  and  _425
REMARK  185  A    between atoms: _425  and  _426
REMARK  186  A    between atoms: _428  and  _430
REMARK  187  A    between atoms: _430  and  _431
REMARK  188  A    between atoms: _430  and  _433
REMARK  189  A    between atoms: _433  and  _434
REMARK  190  A    between atoms: _440  and  _442
REMARK  191  A    between atoms: _442  and  _443
REMARK  192  A    between atoms: _442  and  _445
REMARK  193  A    between atoms: _445  and  _446
REMARK  194  A    between atoms: _451  and  _452
REMARK  195  A    between atoms: _454  and  _456
REMARK  196  A    between atoms: _456  and  _457
REMARK  197  A    between atoms: _456  and  _459
REMARK  198  A    between atoms: _459  and  _460
REMARK  199  A    between atoms: _462  and  _464
REMARK  200  A    between atoms: _464  and  _465
REMARK  201  A    between atoms: _468  and  _470
REMARK  202  A    between atoms: _470  and  _471
REMARK  203  A    between atoms: _470  and  _473
REMARK  204  A    between atoms: _473  and  _474
REMARK  205  A    between atoms: _479  and  _480
REMARK  206  A    between atoms: _482  and  _484
REMARK  207  A    between atoms: _484  and  _485
REMARK  208  A    between atoms: _484  and  _487
REMARK  209  A    between atoms: _490  and  _492
REMARK  210  A    between atoms: _492  and  _493
REMARK  211  A    between atoms: _492  and  _495
REMARK  212  A    between atoms: _495  and  _496
REMARK  213  A    between atoms: _499  and  _501
REMARK  214  A    between atoms: _501  and  _502
REMARK  215  A    between atoms: _501  and  _504
REMARK  216  A    between atoms: _507  and  _509
REMARK  217  A    between atoms: _509  and  _510
REMARK  218  A    between atoms: _509  and  _512
REMARK  219  A    between atoms: _512  and  _513
REMARK  220  A    between atoms: _516  and  _518
REMARK  221  A    between atoms: _518  and  _519
REMARK  222  A    between atoms: _518  and  _521
REMARK  223  A    between atoms: _521  and  _522
REMARK  224  A    between atoms: _525  and  _527
REMARK  225  A    between atoms: _527  and  _528
REMARK  226  A    between atoms: _527  and  _530
REMARK  227  A    between atoms: _530  and  _531
REMARK  228  A    between atoms: _531  and  _532
REMARK  229  A    between atoms: _532  and  _533
REMARK  230  A    between atoms: _533  and  _534
REMARK  231  A    between atoms: _538  and  _540
REMARK  232  A    between atoms: _540  and  _541
REMARK  233  A    between atoms: _540  and  _543
REMARK  234  A    between atoms: _543  and  _544
REMARK  235  A    between atoms: _549  and  _551
REMARK  236  A    between atoms: _551  and  _552
REMARK  237  A    between atoms: _555  and  _557
REMARK  238  A    between atoms: _557  and  _558
REMARK  239  A    between atoms: _557  and  _560
REMARK  240  A    between atoms: _560  and  _561
REMARK  241  A    between atoms: _571  and  _573
REMARK  242  A    between atoms: _573  and  _574
REMARK  243  A    between atoms: _573  and  _576
REMARK  244  A    between atoms: _576  and  _577
REMARK  245  A    between atoms: _577  and  _578
REMARK  246  A    between atoms: _581  and  _583
REMARK  247  A    between atoms: _583  and  _584
REMARK  248  A    between atoms: _583  and  _586
REMARK  249  A    between atoms: _586  and  _587
REMARK  250  A    between atoms: _589  and  _591
REMARK  251  A    between atoms: _591  and  _592
REMARK  252  A    between atoms: _591  and  _594
REMARK  253  A    between atoms: _594  and  _595
REMARK  254  A    between atoms: _601  and  _603
REMARK  255  A    between atoms: _603  and  _604
REMARK  256  A    between atoms: _603  and  _606
REMARK  257  A    between atoms: _606  and  _607
REMARK  258  A    between atoms: _610  and  _612
REMARK  259  A    between atoms: _612  and  _613
REMARK  260  A    between atoms: _612  and  _615
REMARK  261  A    between atoms: _618  and  _620
REMARK  262  A    between atoms: _620  and  _621
REMARK  263  A    between atoms: _620  and  _623
REMARK  264  A    between atoms: _623  and  _624
REMARK  265  A    between atoms: _624  and  _625
REMARK  266  A    between atoms: _627  and  _629
REMARK  267  A    between atoms: _629  and  _630
REMARK  268  A    between atoms: _632  and  _634
REMARK  269  A    between atoms: _634  and  _635
REMARK  270  A    between atoms: _634  and  _637
REMARK  271  A    between atoms: _637  and  _638
REMARK  272  A    between atoms: _641  and  _643
REMARK  273  A    between atoms: _643  and  _644
REMARK  274  A    between atoms: _643  and  _646
REMARK  275  A    between atoms: _646  and  _647
REMARK  276  A    between atoms: _647  and  _648
REMARK  277  A    between atoms: _648  and  _649
REMARK  278  A    between atoms: _649  and  _650
REMARK  279  A    between atoms: _654  and  _656
REMARK  280  A    between atoms: _656  and  _657
REMARK  281  A    between atoms: _656  and  _659
REMARK                            x       y       z     vdW  Elec       q    Type
REMARK                         _______ _______ _______ _____ _____    ______ ____
ROOT
ATOM      1  CA  ASN A   5      -1.182   8.108  20.752  0.00  0.00    +0.158 C 
ENDROOT
BRANCH   1   4
ATOM      2  C   SER A   4      -2.407   6.918  19.027  0.00  0.00    +0.243 C 
ATOM      3  O   SER A   4      -2.686   6.007  19.809  0.00  0.00    -0.273 OA
ATOM      4  N   ASN A   5      -1.672   7.969  19.385  0.00  0.00    -0.297 N 
ATOM      5  H   ASN A   5      -1.444   8.700  18.681  0.00  0.00    +0.150 HD
BRANCH   2   6
ATOM      6  CA  SER A   4      -2.897   6.882  17.580  0.00  0.00    +0.178 C 
BRANCH   6   9
ATOM      7  C   ILE A   3      -4.381   8.800  17.717  0.00  0.00    +0.241 C 
ATOM      8  O   ILE A   3      -5.052   8.266  18.600  0.00  0.00    -0.273 OA
ATOM      9  N   SER A   4      -3.320   8.215  17.168  0.00  0.00    -0.295 N 
ATOM     10  H   SER A   4      -2.783   8.717  16.432  0.00  0.00    +0.150 HD
BRANCH   7  11
ATOM     11  CA  ILE A   3      -4.725  10.208  17.220  0.00  0.00    +0.149 C 
BRANCH  11  14
ATOM     12  C   LEU A   2      -2.619  11.218  17.860  0.00  0.00    +0.241 C 
ATOM     13  O   LEU A   2      -2.824  10.936  19.038  0.00  0.00    -0.273 OA
ATOM     14  N   ILE A   3      -3.482  10.906  16.900  0.00  0.00    -0.297 N 
ATOM     15  H   ILE A   3      -3.272  11.160  15.914  0.00  0.00    +0.150 HD
BRANCH  12  16
ATOM     16  CA  LEU A   2      -1.324  11.933  17.442  0.00  0.00    +0.149 C 
BRANCH  16  19
ATOM     17  C   GLU A   1      -0.264  10.164  16.183  0.00  0.00    +0.238 C 
ATOM     18  O   GLU A   1      -0.180   9.466  17.193  0.00  0.00    -0.274 OA
ATOM     19  N   LEU A   2      -0.794  11.382  16.200  0.00  0.00    -0.297 N 
ATOM     20  H   LEU A   2      -0.831  11.944  15.326  0.00  0.00    +0.150 HD
BRANCH  17  21
ATOM     21  CA  GLU A   1       0.265   9.659  14.845  0.00  0.00    +0.145 C 
BRANCH  21  22
ATOM     22  N   GLU A   1      -0.602   9.985  13.723  0.00  0.00    -0.238 NA
ATOM     23  H   GLU A   1      -0.265  10.645  12.994  0.00  0.00    +0.142 HD
ENDBRANCH  21  22
BRANCH  21  24
ATOM     24  CB  GLU A   1       1.669  10.226  14.599  0.00  0.00    +0.038 C 
BRANCH  24  25
ATOM     25  CG  GLU A   1       2.347   9.703  13.335  0.00  0.00    +0.116 C 
BRANCH  25  26
ATOM     26  CD  GLU A   1       2.395   8.187  13.263  0.00  0.00    +0.365 C 
ATOM     27  OE2 GLU A   1       2.547   7.549  14.329  0.00  0.00    -0.246 OA
ATOM     28  OE1 GLU A   1       2.293   7.635  12.147  0.00  0.00    -0.246 OA
ENDBRANCH  25  26
ENDBRANCH  24  25
ENDBRANCH  21  24
ENDBRANCH  17  21
ENDBRANCH  16  19
BRANCH  16  29
ATOM     29  CB  LEU A   2      -1.539  13.448  17.303  0.00  0.00    +0.029 C 
BRANCH  29  30
ATOM     30  CG  LEU A   2      -0.212  14.211  17.182  0.00  0.00    +0.002 C 
ATOM     31  CD2 LEU A   2       0.612  13.994  18.441  0.00  0.00    +0.000 C 
ATOM     32  CD1 LEU A   2      -0.474  15.696  16.968  0.00  0.00    +0.000 C 
ENDBRANCH  29  30
ENDBRANCH  16  29
ENDBRANCH  12  16
ENDBRANCH  11  14
BRANCH  11  33
ATOM     33  CB  ILE A   3      -5.656  10.137  15.982  0.00  0.00    +0.027 C 
ATOM     34  CG2 ILE A   3      -6.790   9.139  16.220  0.00  0.00    +0.002 C 
BRANCH  33  35
ATOM     35  CG1 ILE A   3      -6.221  11.533  15.692  0.00  0.00    +0.002 C 
ATOM     36  CD1 ILE A   3      -7.060  11.629  14.413  0.00  0.00    +0.000 C 
ENDBRANCH  33  35
ENDBRANCH  11  33
ENDBRANCH   7  11
ENDBRANCH   6   9
BRANCH   6  37
ATOM     37  CB  SER A   4      -1.783   6.364  16.662  0.00  0.00    +0.166 C 
BRANCH  37  38
ATOM     38  OG  SER A   4      -1.434   5.031  16.984  0.00  0.00    -0.380 OA
ATOM     39  H   SER A   4      -2.228   4.449  16.879  0.00  0.00    +0.211 HD
ENDBRANCH  37  38
ENDBRANCH   6  37
ENDBRANCH   2   6
ENDBRANCH   1   4
BRANCH   1  40
ATOM     40  C   ASN A   5      -2.352   8.317  21.718  0.00  0.00    +0.241 C 
ATOM     41  O   ASN A   5      -2.328   7.810  22.840  0.00  0.00    -0.273 OA
ATOM     42  N   SER A   6      -3.373   9.052  21.287  0.00  0.00    -0.295 N 
ATOM     43  H   SER A   6      -3.340   9.466  20.334  0.00  0.00    +0.150 HD
BRANCH  42  44
ATOM     44  CA  SER A   6      -4.539   9.285  22.134  0.00  0.00    +0.178 C 
BRANCH  44  45
ATOM     45  C   SER A   6      -5.257   7.965  22.340  0.00  0.00    +0.243 C 
ATOM     46  O   SER A   6      -5.645   7.615  23.455  0.00  0.00    -0.273 OA
ATOM     47  N   SER A   7      -5.412   7.229  21.245  0.00  0.00    -0.295 N 
ATOM     48  H   SER A   7      -5.056   7.589  20.337  0.00  0.00    +0.150 HD
BRANCH  47  49
ATOM     49  CA  SER A   7      -6.070   5.926  21.287  0.00  0.00    +0.178 C 
BRANCH  49  50
ATOM     50  C   SER A   7      -5.334   5.013  22.258  0.00  0.00    +0.243 C 
ATOM     51  O   SER A   7      -5.960   4.325  23.060  0.00  0.00    -0.273 OA
ATOM     52  N   ASP A   8      -4.006   5.007  22.201  0.00  0.00    -0.296 N 
ATOM     53  H   ASP A   8      -3.517   5.613  21.511  0.00  0.00    +0.150 HD
BRANCH  52  54
ATOM     54  CA  ASP A   8      -3.229   4.159  23.097  0.00  0.00    +0.160 C 
BRANCH  54  55
ATOM     55  C   ASP A   8      -3.410   4.560  24.559  0.00  0.00    +0.241 C 
ATOM     56  O   ASP A   8      -3.455   3.707  25.444  0.00  0.00    -0.273 OA
ATOM     57  N   ALA A   9      -3.500   5.863  24.810  0.00  0.00    -0.297 N 
ATOM     58  H   ALA A   9      -3.451   6.540  24.022  0.00  0.00    +0.150 HD
BRANCH  57  59
ATOM     59  CA  ALA A   9      -3.666   6.359  26.173  0.00  0.00    +0.149 C 
ATOM     60  CB  ALA A   9      -3.444   7.863  26.220  0.00  0.00    +0.031 C 
BRANCH  59  61
ATOM     61  C   ALA A   9      -5.053   6.020  26.696  0.00  0.00    +0.241 C 
ATOM     62  O   ALA A   9      -5.238   5.781  27.891  0.00  0.00    -0.273 OA
ATOM     63  N   LEU A  10      -6.028   5.993  25.794  0.00  0.00    -0.298 N 
ATOM     64  H   LEU A  10      -5.816   6.220  24.802  0.00  0.00    +0.150 HD
BRANCH  63  65
ATOM     65  CA  LEU A  10      -7.389   5.650  26.177  0.00  0.00    +0.137 C 
BRANCH  65  66
ATOM     66  C   LEU A  10      -7.443   4.159  26.505  0.00  0.00    +0.227 C 
ATOM     67  O   LEU A  10      -8.080   3.756  27.480  0.00  0.00    -0.286 OA
ENDBRANCH  65  66
BRANCH  65  68
ATOM     68  CB  LEU A  10      -8.354   6.021  25.043  0.00  0.00    +0.028 C 
BRANCH  68  69
ATOM     69  CG  LEU A  10      -8.594   7.530  24.948  0.00  0.00    +0.002 C 
ATOM     70  CD2 LEU A  10      -9.548   7.944  26.059  0.00  0.00    +0.000 C 
ATOM     71  CD1 LEU A  10      -9.143   7.917  23.585  0.00  0.00    +0.000 C 
ENDBRANCH  68  69
ENDBRANCH  65  68
ENDBRANCH  63  65
ENDBRANCH  59  61
ENDBRANCH  57  59
ENDBRANCH  54  55
BRANCH  54  72
ATOM     72  CB  ASP A   8      -1.736   4.228  22.759  0.00  0.00    +0.143 C 
BRANCH  72  73
ATOM     73  CG  ASP A   8      -1.394   3.565  21.437  0.00  0.00    +0.367 C 
ATOM     74  OD2 ASP A   8      -0.255   3.771  20.967  0.00  0.00    -0.246 OA
ATOM     75  OD1 ASP A   8      -2.241   2.831  20.886  0.00  0.00    -0.246 OA
ENDBRANCH  72  73
ENDBRANCH  54  72
ENDBRANCH  52  54
ENDBRANCH  49  50
BRANCH  49  76
ATOM     76  CB  SER A   7      -6.091   5.288  19.892  0.00  0.00    +0.166 C 
BRANCH  76  77
ATOM     77  OG  SER A   7      -6.760   4.039  19.901  0.00  0.00    -0.380 OA
ATOM     78  H   SER A   7      -6.296   3.422  20.521  0.00  0.00    +0.211 HD
ENDBRANCH  76  77
ENDBRANCH  49  76
ENDBRANCH  47  49
ENDBRANCH  44  45
BRANCH  44  79
ATOM     79  CB  SER A   6      -5.490  10.284  21.474  0.00  0.00    +0.166 C 
BRANCH  79  80
ATOM     80  OG  SER A   6      -4.985  11.604  21.554  0.00  0.00    -0.380 OA
ATOM     81  H   SER A   6      -4.873  11.856  22.505  0.00  0.00    +0.211 HD
ENDBRANCH  79  80
ENDBRANCH  44  79
ENDBRANCH  42  44
ENDBRANCH   1  40
BRANCH   1  82
ATOM     82  CB  ASN A   5      -0.192   9.279  20.850  0.00  0.00    +0.114 C 
BRANCH  82  83
ATOM     83  CG  ASN A   5       1.203   8.908  20.357  0.00  0.00    +0.222 C 
ATOM     84  ND2 ASN A   5       2.163   9.801  20.559  0.00  0.00    -0.329 N 
ATOM     85 HD21 ASN A   5       1.946  10.698  21.039  0.00  0.00    +0.145 HD
ATOM     86 HD22 ASN A   5       3.132   9.604  20.238  0.00  0.00    +0.145 HD
ATOM     87  OD1 ASN A   5       1.409   7.830  19.793  0.00  0.00    -0.275 OA
ENDBRANCH  82  83
ENDBRANCH   1  82
TORSDOF 39
REMARK  Name = ../refined-set-2016/2yki/2yki_pocket.pdb
REMARK  281 active torsions:
REMARK  status: ('A' for Active; 'I' for Inactive)
REMARK    1  A    between atoms: _1  and  _3
REMARK    2  A    between atoms: _3  and  _4
REMARK    3  A    between atoms: _3  and  _6
REMARK    4  A    between atoms: _6  and  _7
REMARK    5  A    between atoms: _13  and  _15
REMARK    6  A    between atoms: _15  and  _16
REMARK    7  A    between atoms: _19  and  _21
REMARK    8  A    between atoms: _21  and  _22
REMARK    9  A    between atoms: _21  and  _24
REMARK   10  A    between atoms: _24  and  _25
REMARK   11  A    between atoms: _31  and  _33
REMARK   12  A    between atoms: _33  and  _34
REMARK   13  A    between atoms: _33  and  _36
REMARK   14  A    between atoms: _36  and  _37
REMARK   15  A    between atoms: _37  and  _38
REMARK   16  A    between atoms: _43  and  _45
REMARK   17  A    between atoms: _45  and  _46
REMARK   18  A    between atoms: _45  and  _48
REMARK   19  A    between atoms: _48  and  _49
REMARK   20  A    between atoms: _52  and  _54
REMARK   21  A    between atoms: _54  and  _55
REMARK   22  A    between atoms: _58  and  _60
REMARK   23  A    between atoms: _60  and  _61
REMARK   24  A    between atoms: _60  and  _63
REMARK   25  A    between atoms: _63  and  _64
REMARK   26  A    between atoms: _67  and  _69
REMARK   27  A    between atoms: _69  and  _70
REMARK   28  A    between atoms: _69  and  _72
REMARK   29  A    between atoms: _72  and  _73
REMARK   30  A    between atoms: _73  and  _74
REMARK   31  A    between atoms: _76  and  _78
REMARK   32  A    between atoms: _78  and  _79
REMARK   33  A    between atoms: _78  and  _81
REMARK   34  A    between atoms: _81  and  _82
REMARK   35  A    between atoms: _82  and  _83
REMARK   36  A    between atoms: _86  and  _88
REMARK   37  A    between atoms: _88  and  _89
REMARK   38  A    between atoms: _88  and  _91
REMARK   39  A    between atoms: _91  and  _92
REMARK   40  A    between atoms: _95  and  _97
REMARK   41  A    between atoms: _97  and  _98
REMARK   42  A    between atoms: _97  and  _100
REMARK   43  A    between atoms: _100  and  _101
REMARK   44  A    between atoms: _104  and  _106
REMARK   45  A    between atoms: _106  and  _107
REMARK   46  A    between atoms: _106  and  _109
REMARK   47  A    between atoms: _109  and  _110
REMARK   48  A    between atoms: _112  and  _114
REMARK   49  A    between atoms: _114  and  _115
REMARK   50  A    between atoms: _114  and  _117
REMARK   51  A    between atoms: _117  and  _118
REMARK   52  A    between atoms: _123  and  _125
REMARK   53  A    between atoms: _125  and  _126
REMARK   54  A    between atoms: _125  and  _128
REMARK   55  A    between atoms: _128  and  _129
REMARK   56  A    between atoms: _131  and  _133
REMARK   57  A    between atoms: _133  and  _134
REMARK   58  A    between atoms: _133  and  _136
REMARK   59  A    between atoms: _136  and  _137
REMARK   60  A    between atoms: _139  and  _141
REMARK   61  A    between atoms: _141  and  _142
REMARK   62  A    between atoms: _141  and  _144
REMARK   63  A    between atoms: _144  and  _145
REMARK   64  A    between atoms: _148  and  _150
REMARK   65  A    between atoms: _150  and  _151
REMARK   66  A    between atoms: _154  and  _156
REMARK   67  A    between atoms: _156  and  _157
REMARK   68  A    between atoms: _156  and  _159
REMARK   69  A    between atoms: _159  and  _160
REMARK   70  A    between atoms: _163  and  _165
REMARK   71  A    between atoms: _165  and  _166
REMARK   72  A    between atoms: _165  and  _168
REMARK   73  A    between atoms: _168  and  _169
REMARK   74  A    between atoms: _169  and  _170
REMARK   75  A    between atoms: _170  and  _171
REMARK   76  A    between atoms: _171  and  _172
REMARK   77  A    between atoms: _176  and  _178
REMARK   78  A    between atoms: _178  and  _179
REMARK   79  A    between atoms: _178  and  _181
REMARK   80  A    between atoms: _181  and  _182
REMARK   81  A    between atoms: _185  and  _187
REMARK   82  A    between atoms: _187  and  _188
REMARK   83  A    between atoms: _187  and  _190
REMARK   84  A    between atoms: _190  and  _191
REMARK   85  A    between atoms: _194  and  _196
REMARK   86  A    between atoms: _196  and  _197
REMARK   87  A    between atoms: _196  and  _199
REMARK   88  A    between atoms: _202  and  _204
REMARK   89  A    between atoms: _204  and  _205
REMARK   90  A    between atoms: _204  and  _207
REMARK   91  A    between atoms: _207  and  _208
REMARK   92  A    between atoms: _211  and  _213
REMARK   93  A    between atoms: _213  and  _214
REMARK   94  A    between atoms: _213  and  _216
REMARK   95  A    between atoms: _216  and  _217
REMARK   96  A    between atoms: _220  and  _222
REMARK   97  A    between atoms: _222  and  _223
REMARK   98  A    between atoms: _225  and  _227
REMARK   99  A    between atoms: _227  and  _228
REMARK  100  A    between atoms: _227  and  _230
REMARK  101  A    between atoms: _230  and  _231
REMARK  102  A    between atoms: _234  and  _236
REMARK  103  A    between atoms: _236  and  _237
REMARK  104  A    between atoms: _239  and  _241
REMARK  105  A    between atoms: _241  and  _242
REMARK  106  A    between atoms: _241  and  _244
REMARK  107  A    between atoms: _244  and  _245
REMARK  108  A    between atoms: _245  and  _246
REMARK  109  A    between atoms: _248  and  _250
REMARK  110  A    between atoms: _250  and  _251
REMARK  111  A    between atoms: _250  and  _253
REMARK  112  A    between atoms: _253  and  _254
REMARK  113  A    between atoms: _257  and  _259
REMARK  114  A    between atoms: _259  and  _260
REMARK  115  A    between atoms: _259  and  _262
REMARK  116  A    between atoms: _262  and  _263
REMARK  117  A    between atoms: _263  and  _264
REMARK  118  A    between atoms: _264  and  _265
REMARK  119  A    between atoms: _265  and  _266
REMARK  120  A    between atoms: _270  and  _272
REMARK  121  A    between atoms: _272  and  _273
REMARK  122  A    between atoms: _276  and  _278
REMARK  123  A    between atoms: _278  and  _279
REMARK  124  A    between atoms: _278  and  _281
REMARK  125  A    between atoms: _281  and  _282
REMARK  126  A    between atoms: _285  and  _287
REMARK  127  A    between atoms: _287  and  _288
REMARK  128  A    between atoms: _287  and  _290
REMARK  129  A    between atoms: _290  and  _291
REMARK  130  A    between atoms: _294  and  _296
REMARK  131  A    between atoms: _296  and  _297
REMARK  132  A    between atoms: _296  and  _299
REMARK  133  A    between atoms: _299  and  _300
REMARK  134  A    between atoms: _303  and  _305
REMARK  135  A    between atoms: _305  and  _306
REMARK  136  A    between atoms: _305  and  _308
REMARK  137  A    between atoms: _308  and  _309
REMARK  138  A    between atoms: _314  and  _316
REMARK  139  A    between atoms: _316  and  _317
REMARK  140  A    between atoms: _316  and  _319
REMARK  141  A    between atoms: _319  and  _320
REMARK  142  A    between atoms: _325  and  _327
REMARK  143  A    between atoms: _327  and  _328
REMARK  144  A    between atoms: _327  and  _330
REMARK  145  A    between atoms: _330  and  _331
REMARK  146  A    between atoms: _334  and  _336
REMARK  147  A    between atoms: _336  and  _337
REMARK  148  A    between atoms: _339  and  _341
REMARK  149  A    between atoms: _341  and  _342
REMARK  150  A    between atoms: _341  and  _344
REMARK  151  A    between atoms: _344  and  _345
REMARK  152  A    between atoms: _348  and  _350
REMARK  153  A    between atoms: _350  and  _351
REMARK  154  A    between atoms: _350  and  _353
REMARK  155  A    between atoms: _353  and  _354
REMARK  156  A    between atoms: _357  and  _359
REMARK  157  A    between atoms: _359  and  _360
REMARK  158  A    between atoms: _363  and  _365
REMARK  159  A    between atoms: _365  and  _366
REMARK  160  A    between atoms: _365  and  _368
REMARK  161  A    between atoms: _368  and  _369
REMARK  162  A    between atoms: _369  and  _370
REMARK  163  A    between atoms: _370  and  _371
REMARK  164  A    between atoms: _371  and  _372
REMARK  165  A    between atoms: _376  and  _378
REMARK  166  A    between atoms: _378  and  _379
REMARK  167  A    between atoms: _378  and  _381
REMARK  168  A    between atoms: _381  and  _382
REMARK  169  A    between atoms: _384  and  _386
REMARK  170  A    between atoms: _386  and  _387
REMARK  171  A    between atoms: _389  and  _391
REMARK  172  A    between atoms: _391  and  _392
REMARK  173  A    between atoms: _391  and  _394
REMARK  174  A    between atoms: _394  and  _395
REMARK  175  A    between atoms: _398  and  _400
REMARK  176  A    between atoms: _400  and  _401
REMARK  177  A    between atoms: _400  and  _403
REMARK  178  A    between atoms: _403  and  _404
REMARK  179  A    between atoms: _410  and  _412
REMARK  180  A    between atoms: _412  and  _413
REMARK  181  A    between atoms: _415  and  _417
REMARK  182  A    between atoms: _417  and  _418
REMARK  183  A    between atoms: _417  and  _420
REMARK  184  A    between atoms: _423  and  _425
REMARK  185  A    between atoms: _425  and  _426
REMARK  186  A    between atoms: _428  and  _430
REMARK  187  A    between atoms: _430  and  _431
REMARK  188  A    between atoms: _430  and  _433
REMARK  189  A    between atoms: _433  and  _434
REMARK  190  A    between atoms: _440  and  _442
REMARK  191  A    between atoms: _442  and  _443
REMARK  192  A    between atoms: _442  and  _445
REMARK  193  A    between atoms: _445  and  _446
REMARK  194  A    between atoms: _451  and  _452
REMARK  195  A    between atoms: _454  and  _456
REMARK  196  A    between atoms: _456  and  _457
REMARK  197  A    between atoms: _456  and  _459
REMARK  198  A    between atoms: _459  and  _460
REMARK  199  A    between atoms: _462  and  _464
REMARK  200  A    between atoms: _464  and  _465
REMARK  201  A    between atoms: _468  and  _470
REMARK  202  A    between atoms: _470  and  _471
REMARK  203  A    between atoms: _470  and  _473
REMARK  204  A    between atoms: _473  and  _474
REMARK  205  A    between atoms: _479  and  _480
REMARK  206  A    between atoms: _482  and  _484
REMARK  207  A    between atoms: _484  and  _485
REMARK  208  A    between atoms: _484  and  _487
REMARK  209  A    between atoms: _490  and  _492
REMARK  210  A    between atoms: _492  and  _493
REMARK  211  A    between atoms: _492  and  _495
REMARK  212  A    between atoms: _495  and  _496
REMARK  213  A    between atoms: _499  and  _501
REMARK  214  A    between atoms: _501  and  _502
REMARK  215  A    between atoms: _501  and  _504
REMARK  216  A    between atoms: _507  and  _509
REMARK  217  A    between atoms: _509  and  _510
REMARK  218  A    between atoms: _509  and  _512
REMARK  219  A    between atoms: _512  and  _513
REMARK  220  A    between atoms: _516  and  _518
REMARK  221  A    between atoms: _518  and  _519
REMARK  222  A    between atoms: _518  and  _521
REMARK  223  A    between atoms: _521  and  _522
REMARK  224  A    between atoms: _525  and  _527
REMARK  225  A    between atoms: _527  and  _528
REMARK  226  A    between atoms: _527  and  _530
REMARK  227  A    between atoms: _530  and  _531
REMARK  228  A    between atoms: _531  and  _532
REMARK  229  A    between atoms: _532  and  _533
REMARK  230  A    between atoms: _533  and  _534
REMARK  231  A    between atoms: _538  and  _540
REMARK  232  A    between atoms: _540  and  _541
REMARK  233  A    between atoms: _540  and  _543
REMARK  234  A    between atoms: _543  and  _544
REMARK  235  A    between atoms: _549  and  _551
REMARK  236  A    between atoms: _551  and  _552
REMARK  237  A    between atoms: _555  and  _557
REMARK  238  A    between atoms: _557  and  _558
REMARK  239  A    between atoms: _557  and  _560
REMARK  240  A    between atoms: _560  and  _561
REMARK  241  A    between atoms: _571  and  _573
REMARK  242  A    between atoms: _573  and  _574
REMARK  243  A    between atoms: _573  and  _576
REMARK  244  A    between atoms: _576  and  _577
REMARK  245  A    between atoms: _577  and  _578
REMARK  246  A    between atoms: _581  and  _583
REMARK  247  A    between atoms: _583  and  _584
REMARK  248  A    between atoms: _583  and  _586
REMARK  249  A    between atoms: _586  and  _587
REMARK  250  A    between atoms: _589  and  _591
REMARK  251  A    between atoms: _591  and  _592
REMARK  252  A    between atoms: _591  and  _594
REMARK  253  A    between atoms: _594  and  _595
REMARK  254  A    between atoms: _601  and  _603
REMARK  255  A    between atoms: _603  and  _604
REMARK  256  A    between atoms: _603  and  _606
REMARK  257  A    between atoms: _606  and  _607
REMARK  258  A    between atoms: _610  and  _612
REMARK  259  A    between atoms: _612  and  _613
REMARK  260  A    between atoms: _612  and  _615
REMARK  261  A    between atoms: _618  and  _620
REMARK  262  A    between atoms: _620  and  _621
REMARK  263  A    between atoms: _620  and  _623
REMARK  264  A    between atoms: _623  and  _624
REMARK  265  A    between atoms: _624  and  _625
REMARK  266  A    between atoms: _627  and  _629
REMARK  267  A    between atoms: _629  and  _630
REMARK  268  A    between atoms: _632  and  _634
REMARK  269  A    between atoms: _634  and  _635
REMARK  270  A    between atoms: _634  and  _637
REMARK  271  A    between atoms: _637  and  _638
REMARK  272  A    between atoms: _641  and  _643
REMARK  273  A    between atoms: _643  and  _644
REMARK  274  A    between atoms: _643  and  _646
REMARK  275  A    between atoms: _646  and  _647
REMARK  276  A    between atoms: _647  and  _648
REMARK  277  A    between atoms: _648  and  _649
REMARK  278  A    between atoms: _649  and  _650
REMARK  279  A    between atoms: _654  and  _656
REMARK  280  A    between atoms: _656  and  _657
REMARK  281  A    between atoms: _656  and  _659
REMARK                            x       y       z     vdW  Elec       q    Type
REMARK                         _______ _______ _______ _____ _____    ______ ____
ROOT
ATOM      1  CG  LYS A   1      -2.175   2.618  30.189  0.00  0.00    -0.000 C 
ENDROOT
BRANCH   1   2
ATOM      2  CB  LYS A   1      -3.120   3.007  29.051  0.00  0.00    +0.025 C 
BRANCH   2   3
ATOM      3  CA  LYS A   1      -4.395   2.147  28.980  0.00  0.00    +0.133 C 
BRANCH   3   4
ATOM      4  N   LYS A   1      -5.062   2.342  27.695  0.00  0.00    -0.239 NA
ATOM      5  H   LYS A   1      -4.695   3.058  27.036  0.00  0.00    +0.142 HD
ENDBRANCH   3   4
BRANCH   3   6
ATOM      6  C   LYS A   1      -5.281   2.437  30.189  0.00  0.00    +0.224 C 
ATOM      7  O   LYS A   1      -5.351   1.628  31.111  0.00  0.00    -0.287 OA
ENDBRANCH   3   6
ENDBRANCH   2   3
ENDBRANCH   1   2
BRANCH   1   8
ATOM      8  CD  LYS A   1      -0.840   3.367  30.094  0.00  0.00    -0.024 C 
BRANCH   8   9
ATOM      9  CE  LYS A   1       0.188   2.851  31.109  0.00  0.00    -0.086 C 
BRANCH   9  10
ATOM     10  NZ  LYS A   1       1.474   3.619  31.049  0.00  0.00    +0.380 N 
ATOM     11  HZ1 LYS A   1       2.138   3.236  31.752  0.00  0.00    -0.089 HD
ATOM     12  HZ2 LYS A   1       1.288   4.621  31.256  0.00  0.00    -0.089 HD
ATOM     13  HZ3 LYS A   1       1.885   3.531  30.098  0.00  0.00    -0.089 HD
ENDBRANCH   9  10
ENDBRANCH   8   9
ENDBRANCH   1   8
TORSDOF 7
REMARK  Name = ../refined-set-2016/2yki/2yki_pocket.pdb
REMARK  281 active torsions:
REMARK  status: ('A' for Active; 'I' for Inactive)
REMARK    1  A    between atoms: _1  and  _3
REMARK    2  A    between atoms: _3  and  _4
REMARK    3  A    between atoms: _3  and  _6
REMARK    4  A    between atoms: _6  and  _7
REMARK    5  A    between atoms: _13  and  _15
REMARK    6  A    between atoms: _15  and  _16
REMARK    7  A    between atoms: _19  and  _21
REMARK    8  A    between atoms: _21  and  _22
REMARK    9  A    between atoms: _21  and  _24
REMARK   10  A    between atoms: _24  and  _25
REMARK   11  A    between atoms: _31  and  _33
REMARK   12  A    between atoms: _33  and  _34
REMARK   13  A    between atoms: _33  and  _36
REMARK   14  A    between atoms: _36  and  _37
REMARK   15  A    between atoms: _37  and  _38
REMARK   16  A    between atoms: _43  and  _45
REMARK   17  A    between atoms: _45  and  _46
REMARK   18  A    between atoms: _45  and  _48
REMARK   19  A    between atoms: _48  and  _49
REMARK   20  A    between atoms: _52  and  _54
REMARK   21  A    between atoms: _54  and  _55
REMARK   22  A    between atoms: _58  and  _60
REMARK   23  A    between atoms: _60  and  _61
REMARK   24  A    between atoms: _60  and  _63
REMARK   25  A    between atoms: _63  and  _64
REMARK   26  A    between atoms: _67  and  _69
REMARK   27  A    between atoms: _69  and  _70
REMARK   28  A    between atoms: _69  and  _72
REMARK   29  A    between atoms: _72  and  _73
REMARK   30  A    between atoms: _73  and  _74
REMARK   31  A    between atoms: _76  and  _78
REMARK   32  A    between atoms: _78  and  _79
REMARK   33  A    between atoms: _78  and  _81
REMARK   34  A    between atoms: _81  and  _82
REMARK   35  A    between atoms: _82  and  _83
REMARK   36  A    between atoms: _86  and  _88
REMARK   37  A    between atoms: _88  and  _89
REMARK   38  A    between atoms: _88  and  _91
REMARK   39  A    between atoms: _91  and  _92
REMARK   40  A    between atoms: _95  and  _97
REMARK   41  A    between atoms: _97  and  _98
REMARK   42  A    between atoms: _97  and  _100
REMARK   43  A    between atoms: _100  and  _101
REMARK   44  A    between atoms: _104  and  _106
REMARK   45  A    between atoms: _106  and  _107
REMARK   46  A    between atoms: _106  and  _109
REMARK   47  A    between atoms: _109  and  _110
REMARK   48  A    between atoms: _112  and  _114
REMARK   49  A    between atoms: _114  and  _115
REMARK   50  A    between atoms: _114  and  _117
REMARK   51  A    between atoms: _117  and  _118
REMARK   52  A    between atoms: _123  and  _125
REMARK   53  A    between atoms: _125  and  _126
REMARK   54  A    between atoms: _125  and  _128
REMARK   55  A    between atoms: _128  and  _129
REMARK   56  A    between atoms: _131  and  _133
REMARK   57  A    between atoms: _133  and  _134
REMARK   58  A    between atoms: _133  and  _136
REMARK   59  A    between atoms: _136  and  _137
REMARK   60  A    between atoms: _139  and  _141
REMARK   61  A    between atoms: _141  and  _142
REMARK   62  A    between atoms: _141  and  _144
REMARK   63  A    between atoms: _144  and  _145
REMARK   64  A    between atoms: _148  and  _150
REMARK   65  A    between atoms: _150  and  _151
REMARK   66  A    between atoms: _154  and  _156
REMARK   67  A    between atoms: _156  and  _157
REMARK   68  A    between atoms: _156  and  _159
REMARK   69  A    between atoms: _159  and  _160
REMARK   70  A    between atoms: _163  and  _165
REMARK   71  A    between atoms: _165  and  _166
REMARK   72  A    between atoms: _165  and  _168
REMARK   73  A    between atoms: _168  and  _169
REMARK   74  A    between atoms: _169  and  _170
REMARK   75  A    between atoms: _170  and  _171
REMARK   76  A    between atoms: _171  and  _172
REMARK   77  A    between atoms: _176  and  _178
REMARK   78  A    between atoms: _178  and  _179
REMARK   79  A    between atoms: _178  and  _181
REMARK   80  A    between atoms: _181  and  _182
REMARK   81  A    between atoms: _185  and  _187
REMARK   82  A    between atoms: _187  and  _188
REMARK   83  A    between atoms: _187  and  _190
REMARK   84  A    between atoms: _190  and  _191
REMARK   85  A    between atoms: _194  and  _196
REMARK   86  A    between atoms: _196  and  _197
REMARK   87  A    between atoms: _196  and  _199
REMARK   88  A    between atoms: _202  and  _204
REMARK   89  A    between atoms: _204  and  _205
REMARK   90  A    between atoms: _204  and  _207
REMARK   91  A    between atoms: _207  and  _208
REMARK   92  A    between atoms: _211  and  _213
REMARK   93  A    between atoms: _213  and  _214
REMARK   94  A    between atoms: _213  and  _216
REMARK   95  A    between atoms: _216  and  _217
REMARK   96  A    between atoms: _220  and  _222
REMARK   97  A    between atoms: _222  and  _223
REMARK   98  A    between atoms: _225  and  _227
REMARK   99  A    between atoms: _227  and  _228
REMARK  100  A    between atoms: _227  and  _230
REMARK  101  A    between atoms: _230  and  _231
REMARK  102  A    between atoms: _234  and  _236
REMARK  103  A    between atoms: _236  and  _237
REMARK  104  A    between atoms: _239  and  _241
REMARK  105  A    between atoms: _241  and  _242
REMARK  106  A    between atoms: _241  and  _244
REMARK  107  A    between atoms: _244  and  _245
REMARK  108  A    between atoms: _245  and  _246
REMARK  109  A    between atoms: _248  and  _250
REMARK  110  A    between atoms: _250  and  _251
REMARK  111  A    between atoms: _250  and  _253
REMARK  112  A    between atoms: _253  and  _254
REMARK  113  A    between atoms: _257  and  _259
REMARK  114  A    between atoms: _259  and  _260
REMARK  115  A    between atoms: _259  and  _262
REMARK  116  A    between atoms: _262  and  _263
REMARK  117  A    between atoms: _263  and  _264
REMARK  118  A    between atoms: _264  and  _265
REMARK  119  A    between atoms: _265  and  _266
REMARK  120  A    between atoms: _270  and  _272
REMARK  121  A    between atoms: _272  and  _273
REMARK  122  A    between atoms: _276  and  _278
REMARK  123  A    between atoms: _278  and  _279
REMARK  124  A    between atoms: _278  and  _281
REMARK  125  A    between atoms: _281  and  _282
REMARK  126  A    between atoms: _285  and  _287
REMARK  127  A    between atoms: _287  and  _288
REMARK  128  A    between atoms: _287  and  _290
REMARK  129  A    between atoms: _290  and  _291
REMARK  130  A    between atoms: _294  and  _296
REMARK  131  A    between atoms: _296  and  _297
REMARK  132  A    between atoms: _296  and  _299
REMARK  133  A    between atoms: _299  and  _300
REMARK  134  A    between atoms: _303  and  _305
REMARK  135  A    between atoms: _305  and  _306
REMARK  136  A    between atoms: _305  and  _308
REMARK  137  A    between atoms: _308  and  _309
REMARK  138  A    between atoms: _314  and  _316
REMARK  139  A    between atoms: _316  and  _317
REMARK  140  A    between atoms: _316  and  _319
REMARK  141  A    between atoms: _319  and  _320
REMARK  142  A    between atoms: _325  and  _327
REMARK  143  A    between atoms: _327  and  _328
REMARK  144  A    between atoms: _327  and  _330
REMARK  145  A    between atoms: _330  and  _331
REMARK  146  A    between atoms: _334  and  _336
REMARK  147  A    between atoms: _336  and  _337
REMARK  148  A    between atoms: _339  and  _341
REMARK  149  A    between atoms: _341  and  _342
REMARK  150  A    between atoms: _341  and  _344
REMARK  151  A    between atoms: _344  and  _345
REMARK  152  A    between atoms: _348  and  _350
REMARK  153  A    between atoms: _350  and  _351
REMARK  154  A    between atoms: _350  and  _353
REMARK  155  A    between atoms: _353  and  _354
REMARK  156  A    between atoms: _357  and  _359
REMARK  157  A    between atoms: _359  and  _360
REMARK  158  A    between atoms: _363  and  _365
REMARK  159  A    between atoms: _365  and  _366
REMARK  160  A    between atoms: _365  and  _368
REMARK  161  A    between atoms: _368  and  _369
REMARK  162  A    between atoms: _369  and  _370
REMARK  163  A    between atoms: _370  and  _371
REMARK  164  A    between atoms: _371  and  _372
REMARK  165  A    between atoms: _376  and  _378
REMARK  166  A    between atoms: _378  and  _379
REMARK  167  A    between atoms: _378  and  _381
REMARK  168  A    between atoms: _381  and  _382
REMARK  169  A    between atoms: _384  and  _386
REMARK  170  A    between atoms: _386  and  _387
REMARK  171  A    between atoms: _389  and  _391
REMARK  172  A    between atoms: _391  and  _392
REMARK  173  A    between atoms: _391  and  _394
REMARK  174  A    between atoms: _394  and  _395
REMARK  175  A    between atoms: _398  and  _400
REMARK  176  A    between atoms: _400  and  _401
REMARK  177  A    between atoms: _400  and  _403
REMARK  178  A    between atoms: _403  and  _404
REMARK  179  A    between atoms: _410  and  _412
REMARK  180  A    between atoms: _412  and  _413
REMARK  181  A    between atoms: _415  and  _417
REMARK  182  A    between atoms: _417  and  _418
REMARK  183  A    between atoms: _417  and  _420
REMARK  184  A    between atoms: _423  and  _425
REMARK  185  A    between atoms: _425  and  _426
REMARK  186  A    between atoms: _428  and  _430
REMARK  187  A    between atoms: _430  and  _431
REMARK  188  A    between atoms: _430  and  _433
REMARK  189  A    between atoms: _433  and  _434
REMARK  190  A    between atoms: _440  and  _442
REMARK  191  A    between atoms: _442  and  _443
REMARK  192  A    between atoms: _442  and  _445
REMARK  193  A    between atoms: _445  and  _446
REMARK  194  A    between atoms: _451  and  _452
REMARK  195  A    between atoms: _454  and  _456
REMARK  196  A    between atoms: _456  and  _457
REMARK  197  A    between atoms: _456  and  _459
REMARK  198  A    between atoms: _459  and  _460
REMARK  199  A    between atoms: _462  and  _464
REMARK  200  A    between atoms: _464  and  _465
REMARK  201  A    between atoms: _468  and  _470
REMARK  202  A    between atoms: _470  and  _471
REMARK  203  A    between atoms: _470  and  _473
REMARK  204  A    between atoms: _473  and  _474
REMARK  205  A    between atoms: _479  and  _480
REMARK  206  A    between atoms: _482  and  _484
REMARK  207  A    between atoms: _484  and  _485
REMARK  208  A    between atoms: _484  and  _487
REMARK  209  A    between atoms: _490  and  _492
REMARK  210  A    between atoms: _492  and  _493
REMARK  211  A    between atoms: _492  and  _495
REMARK  212  A    between atoms: _495  and  _496
REMARK  213  A    between atoms: _499  and  _501
REMARK  214  A    between atoms: _501  and  _502
REMARK  215  A    between atoms: _501  and  _504
REMARK  216  A    between atoms: _507  and  _509
REMARK  217  A    between atoms: _509  and  _510
REMARK  218  A    between atoms: _509  and  _512
REMARK  219  A    between atoms: _512  and  _513
REMARK  220  A    between atoms: _516  and  _518
REMARK  221  A    between atoms: _518  and  _519
REMARK  222  A    between atoms: _518  and  _521
REMARK  223  A    between atoms: _521  and  _522
REMARK  224  A    between atoms: _525  and  _527
REMARK  225  A    between atoms: _527  and  _528
REMARK  226  A    between atoms: _527  and  _530
REMARK  227  A    between atoms: _530  and  _531
REMARK  228  A    between atoms: _531  and  _532
REMARK  229  A    between atoms: _532  and  _533
REMARK  230  A    between atoms: _533  and  _534
REMARK  231  A    between atoms: _538  and  _540
REMARK  232  A    between atoms: _540  and  _541
REMARK  233  A    between atoms: _540  and  _543
REMARK  234  A    between atoms: _543  and  _544
REMARK  235  A    between atoms: _549  and  _551
REMARK  236  A    between atoms: _551  and  _552
REMARK  237  A    between atoms: _555  and  _557
REMARK  238  A    between atoms: _557  and  _558
REMARK  239  A    between atoms: _557  and  _560
REMARK  240  A    between atoms: _560  and  _561
REMARK  241  A    between atoms: _571  and  _573
REMARK  242  A    between atoms: _573  and  _574
REMARK  243  A    between atoms: _573  and  _576
REMARK  244  A    between atoms: _576  and  _577
REMARK  245  A    between atoms: _577  and  _578
REMARK  246  A    between atoms: _581  and  _583
REMARK  247  A    between atoms: _583  and  _584
REMARK  248  A    between atoms: _583  and  _586
REMARK  249  A    between atoms: _586  and  _587
REMARK  250  A    between atoms: _589  and  _591
REMARK  251  A    between atoms: _591  and  _592
REMARK  252  A    between atoms: _591  and  _594
REMARK  253  A    between atoms: _594  and  _595
REMARK  254  A    between atoms: _601  and  _603
REMARK  255  A    between atoms: _603  and  _604
REMARK  256  A    between atoms: _603  and  _606
REMARK  257  A    between atoms: _606  and  _607
REMARK  258  A    between atoms: _610  and  _612
REMARK  259  A    between atoms: _612  and  _613
REMARK  260  A    between atoms: _612  and  _615
REMARK  261  A    between atoms: _618  and  _620
REMARK  262  A    between atoms: _620  and  _621
REMARK  263  A    between atoms: _620  and  _623
REMARK  264  A    between atoms: _623  and  _624
REMARK  265  A    between atoms: _624  and  _625
REMARK  266  A    between atoms: _627  and  _629
REMARK  267  A    between atoms: _629  and  _630
REMARK  268  A    between atoms: _632  and  _634
REMARK  269  A    between atoms: _634  and  _635
REMARK  270  A    between atoms: _634  and  _637
REMARK  271  A    between atoms: _637  and  _638
REMARK  272  A    between atoms: _641  and  _643
REMARK  273  A    between atoms: _643  and  _644
REMARK  274  A    between atoms: _643  and  _646
REMARK  275  A    between atoms: _646  and  _647
REMARK  276  A    between atoms: _647  and  _648
REMARK  277  A    between atoms: _648  and  _649
REMARK  278  A    between atoms: _649  and  _650
REMARK  279  A    between atoms: _654  and  _656
REMARK  280  A    between atoms: _656  and  _657
REMARK  281  A    between atoms: _656  and  _659
REMARK                            x       y       z     vdW  Elec       q    Type
REMARK                         _______ _______ _______ _____ _____    ______ ____
ROOT
ATOM      1  CA  ILE A   1     -10.998  12.116  21.262  0.00  0.00    +0.133 C 
ENDROOT
BRANCH   1   2
ATOM      2  N   ILE A   1     -12.020  11.296  21.909  0.00  0.00    -0.239 NA
ATOM      3  H   ILE A   1     -12.847  11.004  21.350  0.00  0.00    +0.142 HD
ENDBRANCH   1   2
BRANCH   1   4
ATOM      4  C   ILE A   1     -11.688  13.265  20.527  0.00  0.00    +0.224 C 
ATOM      5  O   ILE A   1     -12.600  13.038  19.738  0.00  0.00    -0.287 OA
ENDBRANCH   1   4
BRANCH   1   6
ATOM      6  CB  ILE A   1     -10.191  11.285  20.234  0.00  0.00    +0.023 C 
ATOM      7  CG2 ILE A   1      -9.149  12.166  19.557  0.00  0.00    +0.002 C 
BRANCH   6   8
ATOM      8  CG1 ILE A   1      -9.503  10.108  20.931  0.00  0.00    +0.002 C 
ATOM      9  CD1 ILE A   1      -8.811   9.151  19.974  0.00  0.00    +0.000 C 
ENDBRANCH   6   8
ENDBRANCH   1   6
TORSDOF 4
REMARK  Name = ../refined-set-2016/2yki/2yki_pocket.pdb
REMARK  281 active torsions:
REMARK  status: ('A' for Active; 'I' for Inactive)
REMARK    1  A    between atoms: _1  and  _3
REMARK    2  A    between atoms: _3  and  _4
REMARK    3  A    between atoms: _3  and  _6
REMARK    4  A    between atoms: _6  and  _7
REMARK    5  A    between atoms: _13  and  _15
REMARK    6  A    between atoms: _15  and  _16
REMARK    7  A    between atoms: _19  and  _21
REMARK    8  A    between atoms: _21  and  _22
REMARK    9  A    between atoms: _21  and  _24
REMARK   10  A    between atoms: _24  and  _25
REMARK   11  A    between atoms: _31  and  _33
REMARK   12  A    between atoms: _33  and  _34
REMARK   13  A    between atoms: _33  and  _36
REMARK   14  A    between atoms: _36  and  _37
REMARK   15  A    between atoms: _37  and  _38
REMARK   16  A    between atoms: _43  and  _45
REMARK   17  A    between atoms: _45  and  _46
REMARK   18  A    between atoms: _45  and  _48
REMARK   19  A    between atoms: _48  and  _49
REMARK   20  A    between atoms: _52  and  _54
REMARK   21  A    between atoms: _54  and  _55
REMARK   22  A    between atoms: _58  and  _60
REMARK   23  A    between atoms: _60  and  _61
REMARK   24  A    between atoms: _60  and  _63
REMARK   25  A    between atoms: _63  and  _64
REMARK   26  A    between atoms: _67  and  _69
REMARK   27  A    between atoms: _69  and  _70
REMARK   28  A    between atoms: _69  and  _72
REMARK   29  A    between atoms: _72  and  _73
REMARK   30  A    between atoms: _73  and  _74
REMARK   31  A    between atoms: _76  and  _78
REMARK   32  A    between atoms: _78  and  _79
REMARK   33  A    between atoms: _78  and  _81
REMARK   34  A    between atoms: _81  and  _82
REMARK   35  A    between atoms: _82  and  _83
REMARK   36  A    between atoms: _86  and  _88
REMARK   37  A    between atoms: _88  and  _89
REMARK   38  A    between atoms: _88  and  _91
REMARK   39  A    between atoms: _91  and  _92
REMARK   40  A    between atoms: _95  and  _97
REMARK   41  A    between atoms: _97  and  _98
REMARK   42  A    between atoms: _97  and  _100
REMARK   43  A    between atoms: _100  and  _101
REMARK   44  A    between atoms: _104  and  _106
REMARK   45  A    between atoms: _106  and  _107
REMARK   46  A    between atoms: _106  and  _109
REMARK   47  A    between atoms: _109  and  _110
REMARK   48  A    between atoms: _112  and  _114
REMARK   49  A    between atoms: _114  and  _115
REMARK   50  A    between atoms: _114  and  _117
REMARK   51  A    between atoms: _117  and  _118
REMARK   52  A    between atoms: _123  and  _125
REMARK   53  A    between atoms: _125  and  _126
REMARK   54  A    between atoms: _125  and  _128
REMARK   55  A    between atoms: _128  and  _129
REMARK   56  A    between atoms: _131  and  _133
REMARK   57  A    between atoms: _133  and  _134
REMARK   58  A    between atoms: _133  and  _136
REMARK   59  A    between atoms: _136  and  _137
REMARK   60  A    between atoms: _139  and  _141
REMARK   61  A    between atoms: _141  and  _142
REMARK   62  A    between atoms: _141  and  _144
REMARK   63  A    between atoms: _144  and  _145
REMARK   64  A    between atoms: _148  and  _150
REMARK   65  A    between atoms: _150  and  _151
REMARK   66  A    between atoms: _154  and  _156
REMARK   67  A    between atoms: _156  and  _157
REMARK   68  A    between atoms: _156  and  _159
REMARK   69  A    between atoms: _159  and  _160
REMARK   70  A    between atoms: _163  and  _165
REMARK   71  A    between atoms: _165  and  _166
REMARK   72  A    between atoms: _165  and  _168
REMARK   73  A    between atoms: _168  and  _169
REMARK   74  A    between atoms: _169  and  _170
REMARK   75  A    between atoms: _170  and  _171
REMARK   76  A    between atoms: _171  and  _172
REMARK   77  A    between atoms: _176  and  _178
REMARK   78  A    between atoms: _178  and  _179
REMARK   79  A    between atoms: _178  and  _181
REMARK   80  A    between atoms: _181  and  _182
REMARK   81  A    between atoms: _185  and  _187
REMARK   82  A    between atoms: _187  and  _188
REMARK   83  A    between atoms: _187  and  _190
REMARK   84  A    between atoms: _190  and  _191
REMARK   85  A    between atoms: _194  and  _196
REMARK   86  A    between atoms: _196  and  _197
REMARK   87  A    between atoms: _196  and  _199
REMARK   88  A    between atoms: _202  and  _204
REMARK   89  A    between atoms: _204  and  _205
REMARK   90  A    between atoms: _204  and  _207
REMARK   91  A    between atoms: _207  and  _208
REMARK   92  A    between atoms: _211  and  _213
REMARK   93  A    between atoms: _213  and  _214
REMARK   94  A    between atoms: _213  and  _216
REMARK   95  A    between atoms: _216  and  _217
REMARK   96  A    between atoms: _220  and  _222
REMARK   97  A    between atoms: _222  and  _223
REMARK   98  A    between atoms: _225  and  _227
REMARK   99  A    between atoms: _227  and  _228
REMARK  100  A    between atoms: _227  and  _230
REMARK  101  A    between atoms: _230  and  _231
REMARK  102  A    between atoms: _234  and  _236
REMARK  103  A    between atoms: _236  and  _237
REMARK  104  A    between atoms: _239  and  _241
REMARK  105  A    between atoms: _241  and  _242
REMARK  106  A    between atoms: _241  and  _244
REMARK  107  A    between atoms: _244  and  _245
REMARK  108  A    between atoms: _245  and  _246
REMARK  109  A    between atoms: _248  and  _250
REMARK  110  A    between atoms: _250  and  _251
REMARK  111  A    between atoms: _250  and  _253
REMARK  112  A    between atoms: _253  and  _254
REMARK  113  A    between atoms: _257  and  _259
REMARK  114  A    between atoms: _259  and  _260
REMARK  115  A    between atoms: _259  and  _262
REMARK  116  A    between atoms: _262  and  _263
REMARK  117  A    between atoms: _263  and  _264
REMARK  118  A    between atoms: _264  and  _265
REMARK  119  A    between atoms: _265  and  _266
REMARK  120  A    between atoms: _270  and  _272
REMARK  121  A    between atoms: _272  and  _273
REMARK  122  A    between atoms: _276  and  _278
REMARK  123  A    between atoms: _278  and  _279
REMARK  124  A    between atoms: _278  and  _281
REMARK  125  A    between atoms: _281  and  _282
REMARK  126  A    between atoms: _285  and  _287
REMARK  127  A    between atoms: _287  and  _288
REMARK  128  A    between atoms: _287  and  _290
REMARK  129  A    between atoms: _290  and  _291
REMARK  130  A    between atoms: _294  and  _296
REMARK  131  A    between atoms: _296  and  _297
REMARK  132  A    between atoms: _296  and  _299
REMARK  133  A    between atoms: _299  and  _300
REMARK  134  A    between atoms: _303  and  _305
REMARK  135  A    between atoms: _305  and  _306
REMARK  136  A    between atoms: _305  and  _308
REMARK  137  A    between atoms: _308  and  _309
REMARK  138  A    between atoms: _314  and  _316
REMARK  139  A    between atoms: _316  and  _317
REMARK  140  A    between atoms: _316  and  _319
REMARK  141  A    between atoms: _319  and  _320
REMARK  142  A    between atoms: _325  and  _327
REMARK  143  A    between atoms: _327  and  _328
REMARK  144  A    between atoms: _327  and  _330
REMARK  145  A    between atoms: _330  and  _331
REMARK  146  A    between atoms: _334  and  _336
REMARK  147  A    between atoms: _336  and  _337
REMARK  148  A    between atoms: _339  and  _341
REMARK  149  A    between atoms: _341  and  _342
REMARK  150  A    between atoms: _341  and  _344
REMARK  151  A    between atoms: _344  and  _345
REMARK  152  A    between atoms: _348  and  _350
REMARK  153  A    between atoms: _350  and  _351
REMARK  154  A    between atoms: _350  and  _353
REMARK  155  A    between atoms: _353  and  _354
REMARK  156  A    between atoms: _357  and  _359
REMARK  157  A    between atoms: _359  and  _360
REMARK  158  A    between atoms: _363  and  _365
REMARK  159  A    between atoms: _365  and  _366
REMARK  160  A    between atoms: _365  and  _368
REMARK  161  A    between atoms: _368  and  _369
REMARK  162  A    between atoms: _369  and  _370
REMARK  163  A    between atoms: _370  and  _371
REMARK  164  A    between atoms: _371  and  _372
REMARK  165  A    between atoms: _376  and  _378
REMARK  166  A    between atoms: _378  and  _379
REMARK  167  A    between atoms: _378  and  _381
REMARK  168  A    between atoms: _381  and  _382
REMARK  169  A    between atoms: _384  and  _386
REMARK  170  A    between atoms: _386  and  _387
REMARK  171  A    between atoms: _389  and  _391
REMARK  172  A    between atoms: _391  and  _392
REMARK  173  A    between atoms: _391  and  _394
REMARK  174  A    between atoms: _394  and  _395
REMARK  175  A    between atoms: _398  and  _400
REMARK  176  A    between atoms: _400  and  _401
REMARK  177  A    between atoms: _400  and  _403
REMARK  178  A    between atoms: _403  and  _404
REMARK  179  A    between atoms: _410  and  _412
REMARK  180  A    between atoms: _412  and  _413
REMARK  181  A    between atoms: _415  and  _417
REMARK  182  A    between atoms: _417  and  _418
REMARK  183  A    between atoms: _417  and  _420
REMARK  184  A    between atoms: _423  and  _425
REMARK  185  A    between atoms: _425  and  _426
REMARK  186  A    between atoms: _428  and  _430
REMARK  187  A    between atoms: _430  and  _431
REMARK  188  A    between atoms: _430  and  _433
REMARK  189  A    between atoms: _433  and  _434
REMARK  190  A    between atoms: _440  and  _442
REMARK  191  A    between atoms: _442  and  _443
REMARK  192  A    between atoms: _442  and  _445
REMARK  193  A    between atoms: _445  and  _446
REMARK  194  A    between atoms: _451  and  _452
REMARK  195  A    between atoms: _454  and  _456
REMARK  196  A    between atoms: _456  and  _457
REMARK  197  A    between atoms: _456  and  _459
REMARK  198  A    between atoms: _459  and  _460
REMARK  199  A    between atoms: _462  and  _464
REMARK  200  A    between atoms: _464  and  _465
REMARK  201  A    between atoms: _468  and  _470
REMARK  202  A    between atoms: _470  and  _471
REMARK  203  A    between atoms: _470  and  _473
REMARK  204  A    between atoms: _473  and  _474
REMARK  205  A    between atoms: _479  and  _480
REMARK  206  A    between atoms: _482  and  _484
REMARK  207  A    between atoms: _484  and  _485
REMARK  208  A    between atoms: _484  and  _487
REMARK  209  A    between atoms: _490  and  _492
REMARK  210  A    between atoms: _492  and  _493
REMARK  211  A    between atoms: _492  and  _495
REMARK  212  A    between atoms: _495  and  _496
REMARK  213  A    between atoms: _499  and  _501
REMARK  214  A    between atoms: _501  and  _502
REMARK  215  A    between atoms: _501  and  _504
REMARK  216  A    between atoms: _507  and  _509
REMARK  217  A    between atoms: _509  and  _510
REMARK  218  A    between atoms: _509  and  _512
REMARK  219  A    between atoms: _512  and  _513
REMARK  220  A    between atoms: _516  and  _518
REMARK  221  A    between atoms: _518  and  _519
REMARK  222  A    between atoms: _518  and  _521
REMARK  223  A    between atoms: _521  and  _522
REMARK  224  A    between atoms: _525  and  _527
REMARK  225  A    between atoms: _527  and  _528
REMARK  226  A    between atoms: _527  and  _530
REMARK  227  A    between atoms: _530  and  _531
REMARK  228  A    between atoms: _531  and  _532
REMARK  229  A    between atoms: _532  and  _533
REMARK  230  A    between atoms: _533  and  _534
REMARK  231  A    between atoms: _538  and  _540
REMARK  232  A    between atoms: _540  and  _541
REMARK  233  A    between atoms: _540  and  _543
REMARK  234  A    between atoms: _543  and  _544
REMARK  235  A    between atoms: _549  and  _551
REMARK  236  A    between atoms: _551  and  _552
REMARK  237  A    between atoms: _555  and  _557
REMARK  238  A    between atoms: _557  and  _558
REMARK  239  A    between atoms: _557  and  _560
REMARK  240  A    between atoms: _560  and  _561
REMARK  241  A    between atoms: _571  and  _573
REMARK  242  A    between atoms: _573  and  _574
REMARK  243  A    between atoms: _573  and  _576
REMARK  244  A    between atoms: _576  and  _577
REMARK  245  A    between atoms: _577  and  _578
REMARK  246  A    between atoms: _581  and  _583
REMARK  247  A    between atoms: _583  and  _584
REMARK  248  A    between atoms: _583  and  _586
REMARK  249  A    between atoms: _586  and  _587
REMARK  250  A    between atoms: _589  and  _591
REMARK  251  A    between atoms: _591  and  _592
REMARK  252  A    between atoms: _591  and  _594
REMARK  253  A    between atoms: _594  and  _595
REMARK  254  A    between atoms: _601  and  _603
REMARK  255  A    between atoms: _603  and  _604
REMARK  256  A    between atoms: _603  and  _606
REMARK  257  A    between atoms: _606  and  _607
REMARK  258  A    between atoms: _610  and  _612
REMARK  259  A    between atoms: _612  and  _613
REMARK  260  A    between atoms: _612  and  _615
REMARK  261  A    between atoms: _618  and  _620
REMARK  262  A    between atoms: _620  and  _621
REMARK  263  A    between atoms: _620  and  _623
REMARK  264  A    between atoms: _623  and  _624
REMARK  265  A    between atoms: _624  and  _625
REMARK  266  A    between atoms: _627  and  _629
REMARK  267  A    between atoms: _629  and  _630
REMARK  268  A    between atoms: _632  and  _634
REMARK  269  A    between atoms: _634  and  _635
REMARK  270  A    between atoms: _634  and  _637
REMARK  271  A    between atoms: _637  and  _638
REMARK  272  A    between atoms: _641  and  _643
REMARK  273  A    between atoms: _643  and  _644
REMARK  274  A    between atoms: _643  and  _646
REMARK  275  A    between atoms: _646  and  _647
REMARK  276  A    between atoms: _647  and  _648
REMARK  277  A    between atoms: _648  and  _649
REMARK  278  A    between atoms: _649  and  _650
REMARK  279  A    between atoms: _654  and  _656
REMARK  280  A    between atoms: _656  and  _657
REMARK  281  A    between atoms: _656  and  _659
REMARK                            x       y       z     vdW  Elec       q    Type
REMARK                         _______ _______ _______ _____ _____    ______ ____
ROOT
ATOM      1  CA  LEU A  13       6.988  14.407  31.211  0.00  0.00    +0.149 C 
ENDROOT
BRANCH   1   3
ATOM      2  C   ASP A  12       7.112  12.043  31.832  0.00  0.00    +0.241 C 
ATOM      3  N   LEU A  13       6.607  13.259  32.022  0.00  0.00    -0.297 N 
ATOM      4  H   LEU A  13       5.910  13.396  32.782  0.00  0.00    +0.150 HD
ATOM      5  O   ASP A  12       7.953  11.783  30.975  0.00  0.00    -0.273 OA
BRANCH   2   6
ATOM      6  CA  ASP A  12       6.549  10.962  32.748  0.00  0.00    +0.160 C 
BRANCH   6   8
ATOM      7  C   ALA A  11       7.830  11.690  34.664  0.00  0.00    +0.241 C 
ATOM      8  N   ASP A  12       6.642  11.435  34.124  0.00  0.00    -0.297 N 
ATOM      9  H   ASP A  12       5.777  11.573  34.685  0.00  0.00    +0.150 HD
ATOM     10  O   ALA A  11       8.881  11.508  34.057  0.00  0.00    -0.273 OA
BRANCH   7  11
ATOM     11  CA  ALA A  11       7.838  12.211  36.099  0.00  0.00    +0.149 C 
ATOM     12  CB  ALA A  11       7.773  11.047  37.079  0.00  0.00    +0.031 C 
BRANCH  11  14
ATOM     13  C   LYS A  10       6.590  14.254  35.642  0.00  0.00    +0.241 C 
ATOM     14  N   ALA A  11       6.723  13.125  36.335  0.00  0.00    -0.297 N 
ATOM     15  H   ALA A  11       6.017  12.888  37.061  0.00  0.00    +0.150 HD
ATOM     16  O   LYS A  10       7.377  14.597  34.756  0.00  0.00    -0.273 OA
BRANCH  13  17
ATOM     17  CA  LYS A  10       5.380  15.120  35.988  0.00  0.00    +0.149 C 
BRANCH  17  19
ATOM     18  C   THR A   9       3.783  13.528  35.109  0.00  0.00    +0.243 C 
ATOM     19  N   LYS A  10       4.215  14.259  36.131  0.00  0.00    -0.297 N 
ATOM     20  H   LYS A  10       3.716  14.216  37.042  0.00  0.00    +0.150 HD
ATOM     21  O   THR A   9       4.329  13.538  34.001  0.00  0.00    -0.273 OA
BRANCH  18  22
ATOM     22  CA  THR A   9       2.567  12.641  35.377  0.00  0.00    +0.176 C 
BRANCH  22  24
ATOM     23  C   MET A   8       1.323  12.645  33.271  0.00  0.00    +0.241 C 
ATOM     24  N   THR A   9       2.147  12.028  34.115  0.00  0.00    -0.295 N 
ATOM     25  H   THR A   9       2.503  11.082  33.871  0.00  0.00    +0.150 HD
ATOM     26  O   MET A   8       0.821  13.750  33.492  0.00  0.00    -0.273 OA
BRANCH  23  27
ATOM     27  CA  MET A   8       1.016  11.908  31.984  0.00  0.00    +0.149 C 
BRANCH  27  29
ATOM     28  C   GLY A   7      -1.124  11.006  31.214  0.00  0.00    +0.243 C 
ATOM     29  N   MET A   8      -0.396  12.040  31.626  0.00  0.00    -0.297 N 
ATOM     30  H   MET A   8      -0.846  12.975  31.696  0.00  0.00    +0.150 HD
ATOM     31  O   GLY A   7      -0.663   9.872  31.097  0.00  0.00    -0.273 OA
BRANCH  28  32
ATOM     32  CA  GLY A   7      -2.579  11.291  30.879  0.00  0.00    +0.176 C 
BRANCH  32  35
ATOM     33  C   ILE A   6      -3.741   9.284  31.514  0.00  0.00    +0.241 C 
ATOM     34  O   ILE A   6      -3.541   9.516  32.704  0.00  0.00    -0.273 OA
ATOM     35  N   GLY A   7      -3.320  10.087  30.546  0.00  0.00    -0.295 N 
ATOM     36  H   GLY A   7      -3.520   9.855  29.552  0.00  0.00    +0.150 HD
BRANCH  33  37
ATOM     37  CA  ILE A   6      -4.502   8.034  31.084  0.00  0.00    +0.149 C 
BRANCH  37  40
ATOM     38  C   GLY A   5      -6.176   8.980  29.597  0.00  0.00    +0.243 C 
ATOM     39  O   GLY A   5      -6.561   9.770  30.456  0.00  0.00    -0.273 OA
ATOM     40  N   ILE A   6      -5.172   8.136  29.793  0.00  0.00    -0.297 N 
ATOM     41  H   ILE A   6      -4.855   7.533  29.007  0.00  0.00    +0.150 HD
BRANCH  38  42
ATOM     42  CA  GLY A   5      -6.815   8.942  28.228  0.00  0.00    +0.176 C 
BRANCH  42  45
ATOM     43  C   THR A   4      -8.833  10.268  28.508  0.00  0.00    +0.243 C 
ATOM     44  O   THR A   4      -9.349   9.447  29.272  0.00  0.00    -0.273 OA
ATOM     45  N   GLY A   5      -7.630  10.112  27.959  0.00  0.00    -0.295 N 
ATOM     46  H   GLY A   5      -7.265  10.848  27.321  0.00  0.00    +0.150 HD
BRANCH  43  47
ATOM     47  CA  THR A   4      -9.538  11.568  28.126  0.00  0.00    +0.176 C 
BRANCH  47  50
ATOM     48  C   ASP A   3      -8.490  12.726  26.261  0.00  0.00    +0.241 C 
ATOM     49  O   ASP A   3      -7.906  13.505  27.013  0.00  0.00    -0.273 OA
ATOM     50  N   THR A   4      -9.316  11.788  26.701  0.00  0.00    -0.295 N 
ATOM     51  H   THR A   4      -9.819  11.193  26.012  0.00  0.00    +0.150 HD
BRANCH  48  52
ATOM     52  CA  ASP A   3      -8.327  12.828  24.752  0.00  0.00    +0.160 C 
BRANCH  52  54
ATOM     53  C   VAL A   2      -8.445  14.865  23.451  0.00  0.00    +0.241 C 
ATOM     54  N   ASP A   3      -7.875  14.177  24.434  0.00  0.00    -0.297 N 
ATOM     55  H   ASP A   3      -7.100  14.604  24.981  0.00  0.00    +0.150 HD
ATOM     56  O   VAL A   2      -9.329  14.393  22.740  0.00  0.00    -0.273 OA
BRANCH  53  57
ATOM     57  CA  VAL A   2      -7.960  16.291  23.220  0.00  0.00    +0.148 C 
BRANCH  57  60
ATOM     58  C   ILE A   1      -6.444  16.902  21.426  0.00  0.00    +0.238 C 
ATOM     59  O   ILE A   1      -5.506  17.047  22.211  0.00  0.00    -0.274 OA
ATOM     60  N   VAL A   2      -7.661  16.541  21.817  0.00  0.00    -0.297 N 
ATOM     61  H   VAL A   2      -8.414  16.435  21.108  0.00  0.00    +0.150 HD
BRANCH  58  62
ATOM     62  CA  ILE A   1      -6.245  17.158  19.939  0.00  0.00    +0.145 C 
BRANCH  62  63
ATOM     63  CB  ILE A   1      -5.241  16.123  19.397  0.00  0.00    +0.025 C 
ATOM     64  CG2 ILE A   1      -5.831  14.731  19.543  0.00  0.00    +0.002 C 
BRANCH  63  65
ATOM     65  CG1 ILE A   1      -4.922  16.394  17.926  0.00  0.00    +0.002 C 
ATOM     66  CD1 ILE A   1      -3.886  17.486  17.708  0.00  0.00    +0.000 C 
ENDBRANCH  63  65
ENDBRANCH  62  63
BRANCH  62  67
ATOM     67  N   ILE A   1      -5.739  18.521  19.870  0.00  0.00    -0.238 NA
ATOM     68  H   ILE A   1      -4.776  18.724  20.208  0.00  0.00    +0.142 HD
ENDBRANCH  62  67
ENDBRANCH  58  62
ENDBRANCH  57  60
BRANCH  57  69
ATOM     69  CB  VAL A   2      -9.073  17.243  23.716  0.00  0.00    +0.027 C 
ATOM     70  CG2 VAL A   2      -9.359  16.980  25.191  0.00  0.00    +0.002 C 
ATOM     71  CG1 VAL A   2      -8.667  18.689  23.484  0.00  0.00    +0.002 C 
ENDBRANCH  57  69
ENDBRANCH  53  57
ENDBRANCH  52  54
BRANCH  52  72
ATOM     72  CB  ASP A   3      -7.334  11.767  24.238  0.00  0.00    +0.143 C 
BRANCH  72  73
ATOM     73  CG  ASP A   3      -6.000  11.798  24.966  0.00  0.00    +0.367 C 
ATOM     74  OD2 ASP A   3      -5.982  11.476  26.177  0.00  0.00    -0.246 OA
ATOM     75  OD1 ASP A   3      -4.984  12.134  24.323  0.00  0.00    -0.246 OA
ENDBRANCH  72  73
ENDBRANCH  52  72
ENDBRANCH  48  52
ENDBRANCH  47  50
BRANCH  47  76
ATOM     76  CB  THR A   4     -11.045  11.488  28.432  0.00  0.00    +0.137 C 
ATOM     77  CG2 THR A   4     -11.687  12.870  28.291  0.00  0.00    +0.034 C 
BRANCH  76  78
ATOM     78  OG1 THR A   4     -11.678  10.589  27.515  0.00  0.00    -0.382 OA
ATOM     79  HG1 THR A   4     -12.646  10.542  27.716  0.00  0.00    +0.210 HD
ENDBRANCH  76  78
ENDBRANCH  47  76
ENDBRANCH  43  47
ENDBRANCH  42  45
ENDBRANCH  38  42
ENDBRANCH  37  40
BRANCH  37  80
ATOM     80  CB  ILE A   6      -3.553   6.827  31.093  0.00  0.00    +0.027 C 
ATOM     81  CG2 ILE A   6      -2.352   7.096  30.189  0.00  0.00    +0.002 C 
BRANCH  80  82
ATOM     82  CG1 ILE A   6      -3.107   6.541  32.525  0.00  0.00    +0.002 C 
ATOM     83  CD1 ILE A   6      -2.477   5.180  32.701  0.00  0.00    +0.000 C 
ENDBRANCH  80  82
ENDBRANCH  37  80
ENDBRANCH  33  37
ENDBRANCH  32  35
ENDBRANCH  28  32
ENDBRANCH  27  29
BRANCH  27  84
ATOM     84  CB  MET A   8       1.903  12.485  30.878  0.00  0.00    +0.041 C 
BRANCH  84  85
ATOM     85  CG  MET A   8       1.866  11.753  29.529  0.00  0.00    +0.060 C 
BRANCH  85  86
ATOM     86  SD  MET A   8       2.563  12.741  28.155  0.00  0.00    -0.139 S 
ATOM     87  CE  MET A   8       1.091  13.699  27.709  0.00  0.00    +0.069 C 
ENDBRANCH  85  86
ENDBRANCH  84  85
ENDBRANCH  27  84
ENDBRANCH  23  27
ENDBRANCH  22  24
BRANCH  22  88
ATOM     88  CB  THR A   9       2.994  11.586  36.402  0.00  0.00    +0.137 C 
ATOM     89  CG2 THR A   9       1.897  10.569  36.605  0.00  0.00    +0.034 C 
BRANCH  88  90
ATOM     90  OG1 THR A   9       4.183  10.933  35.941  0.00  0.00    -0.382 OA
ATOM     91  HG1 THR A   9       4.461  10.251  36.602  0.00  0.00    +0.210 HD
ENDBRANCH  88  90
ENDBRANCH  22  88
ENDBRANCH  18  22
ENDBRANCH  17  19
BRANCH  17  92
ATOM     92  CB  LYS A  10       5.645  15.887  37.285  0.00  0.00    +0.029 C 
BRANCH  92  93
ATOM     93  CG  LYS A  10       6.753  16.926  37.147  0.00  0.00    +0.000 C 
BRANCH  93  94
ATOM     94  CD  LYS A  10       7.022  17.615  38.477  0.00  0.00    -0.024 C 
BRANCH  94  95
ATOM     95  CE  LYS A  10       8.105  18.679  38.349  0.00  0.00    -0.086 C 
BRANCH  95  96
ATOM     96  NZ  LYS A  10       8.522  19.219  39.679  0.00  0.00    +0.380 N 
ATOM     97  HZ1 LYS A  10       8.895  18.445  40.265  0.00  0.00    -0.089 HD
ATOM     98  HZ2 LYS A  10       7.700  19.647  40.151  0.00  0.00    -0.089 HD
ATOM     99  HZ3 LYS A  10       9.260  19.939  39.543  0.00  0.00    -0.089 HD
ENDBRANCH  95  96
ENDBRANCH  94  95
ENDBRANCH  93  94
ENDBRANCH  92  93
ENDBRANCH  17  92
ENDBRANCH  13  17
ENDBRANCH  11  14
ENDBRANCH   7  11
ENDBRANCH   6   8
BRANCH   6 100
ATOM    100  CB  ASP A  12       5.088  10.713  32.337  0.00  0.00    +0.143 C 
BRANCH 100 101
ATOM    101  CG  ASP A  12       4.493   9.453  32.942  0.00  0.00    +0.367 C 
ATOM    102  OD2 ASP A  12       3.263   9.454  33.199  0.00  0.00    -0.246 OA
ATOM    103  OD1 ASP A  12       5.222   8.462  33.127  0.00  0.00    -0.246 OA
ENDBRANCH 100 101
ENDBRANCH   6 100
ENDBRANCH   2   6
ENDBRANCH   1   3
BRANCH   1 104
ATOM    104  C   LEU A  13       8.467  14.724  31.174  0.00  0.00    +0.241 C 
ATOM    105  N   ILE A  14       9.118  14.652  32.325  0.00  0.00    -0.297 N 
ATOM    106  H   ILE A  14       8.613  14.349  33.182  0.00  0.00    +0.150 HD
ATOM    107  O   LEU A  13       9.015  15.025  30.118  0.00  0.00    -0.273 OA
BRANCH 105 108
ATOM    108  CA  ILE A  14      10.532  14.991  32.407  0.00  0.00    +0.149 C 
BRANCH 108 109
ATOM    109  C   ILE A  14      11.522  13.847  32.272  0.00  0.00    +0.241 C 
ATOM    110  N   ASN A  15      11.248  12.738  32.945  0.00  0.00    -0.297 N 
ATOM    111  H   ASN A  15      10.370  12.673  33.499  0.00  0.00    +0.150 HD
ATOM    112  O   ILE A  14      12.520  13.967  31.566  0.00  0.00    -0.273 OA
BRANCH 110 113
ATOM    113  CA  ASN A  15      12.167  11.613  32.913  0.00  0.00    +0.158 C 
BRANCH 113 114
ATOM    114  C   ASN A  15      11.743  10.406  32.088  0.00  0.00    +0.241 C 
ATOM    115  N   ASN A  16      10.601   9.819  32.420  0.00  0.00    -0.297 N 
ATOM    116  H   ASN A  16      10.033  10.208  33.200  0.00  0.00    +0.150 HD
ATOM    117  O   ASN A  15      12.446  10.009  31.159  0.00  0.00    -0.273 OA
BRANCH 115 118
ATOM    118  CA  ASN A  16      10.129   8.635  31.707  0.00  0.00    +0.158 C 
BRANCH 118 119
ATOM    119  C   ASN A  16      10.085   8.772  30.183  0.00  0.00    +0.241 C 
ATOM    120  N   LEU A  17       9.402   9.794  29.685  0.00  0.00    -0.297 N 
ATOM    121  H   LEU A  17       8.928  10.461  30.327  0.00  0.00    +0.150 HD
ATOM    122  O   ASN A  16      10.663   7.963  29.464  0.00  0.00    -0.273 OA
BRANCH 120 123
ATOM    123  CA  LEU A  17       9.311   9.989  28.241  0.00  0.00    +0.149 C 
BRANCH 123 124
ATOM    124  C   LEU A  17      10.635  10.421  27.616  0.00  0.00    +0.241 C 
ATOM    125  N   GLY A  18      11.560  10.891  28.446  0.00  0.00    -0.295 N 
ATOM    126  H   GLY A  18      11.352  10.974  29.462  0.00  0.00    +0.150 HD
ATOM    127  O   LEU A  17      10.818  10.319  26.401  0.00  0.00    -0.273 OA
BRANCH 125 128
ATOM    128  CA  GLY A  18      12.862  11.289  27.937  0.00  0.00    +0.176 C 
BRANCH 128 129
ATOM    129  C   GLY A  18      13.638  10.040  27.578  0.00  0.00    +0.243 C 
ATOM    130  N   THR A  19      13.423   8.995  28.368  0.00  0.00    -0.295 N 
ATOM    131  H   THR A  19      12.769   9.092  29.171  0.00  0.00    +0.150 HD
ATOM    132  O   GLY A  18      14.408  10.008  26.613  0.00  0.00    -0.273 OA
BRANCH 130 133
ATOM    133  CA  THR A  19      14.079   7.717  28.138  0.00  0.00    +0.176 C 
BRANCH 133 134
ATOM    134  C   THR A  19      13.530   7.096  26.855  0.00  0.00    +0.243 C 
ATOM    135  N   ILE A  20      12.210   7.127  26.692  0.00  0.00    -0.297 N 
ATOM    136  H   ILE A  20      11.614   7.551  27.431  0.00  0.00    +0.150 HD
ATOM    137  O   THR A  19      14.290   6.594  26.026  0.00  0.00    -0.273 OA
BRANCH 135 138
ATOM    138  CA  ILE A  20      11.583   6.576  25.494  0.00  0.00    +0.149 C 
BRANCH 138 139
ATOM    139  C   ILE A  20      12.015   7.369  24.263  0.00  0.00    +0.241 C 
ATOM    140  N   ALA A  21      12.077   8.690  24.398  0.00  0.00    -0.297 N 
ATOM    141  H   ALA A  21      11.835   9.125  25.311  0.00  0.00    +0.150 HD
ATOM    142  O   ILE A  20      12.290   6.796  23.208  0.00  0.00    -0.273 OA
BRANCH 140 143
ATOM    143  CA  ALA A  21      12.479   9.536  23.283  0.00  0.00    +0.149 C 
ATOM    144  CB  ALA A  21      12.388  11.005  23.680  0.00  0.00    +0.031 C 
BRANCH 143 145
ATOM    145  C   ALA A  21      13.892   9.211  22.800  0.00  0.00    +0.241 C 
ATOM    146  N   LYS A  22      14.796   8.894  23.723  0.00  0.00    -0.297 N 
ATOM    147  H   LYS A  22      14.525   8.867  24.727  0.00  0.00    +0.150 HD
ATOM    148  O   ALA A  21      14.162   9.247  21.600  0.00  0.00    -0.273 OA
BRANCH 146 149
ATOM    149  CA  LYS A  22      16.170   8.584  23.329  0.00  0.00    +0.149 C 
BRANCH 149 150
ATOM    150  C   LYS A  22      16.296   7.253  22.585  0.00  0.00    +0.241 C 
ATOM    151  N   SER A  23      15.771   6.180  23.169  0.00  0.00    -0.295 N 
ATOM    152  H   SER A  23      15.296   6.276  24.089  0.00  0.00    +0.150 HD
ATOM    153  O   LYS A  22      16.855   7.205  21.488  0.00  0.00    -0.273 OA
BRANCH 151 154
ATOM    154  CA  SER A  23      15.854   4.870  22.532  0.00  0.00    +0.178 C 
BRANCH 154 155
ATOM    155  C   SER A  23      15.088   4.863  21.213  0.00  0.00    +0.243 C 
ATOM    156  N   GLY A  24      13.902   5.468  21.214  0.00  0.00    -0.295 N 
ATOM    157  H   GLY A  24      13.549   5.905  22.089  0.00  0.00    +0.150 HD
ATOM    158  O   SER A  23      15.565   4.321  20.217  0.00  0.00    -0.273 OA
BRANCH 156 159
ATOM    159  CA  GLY A  24      13.098   5.524  20.010  0.00  0.00    +0.176 C 
BRANCH 159 160
ATOM    160  C   GLY A  24      13.764   6.300  18.891  0.00  0.00    +0.243 C 
ATOM    161  N   THR A  25      14.388   7.426  19.229  0.00  0.00    -0.296 N 
ATOM    162  H   THR A  25      14.387   7.732  20.223  0.00  0.00    +0.150 HD
ATOM    163  O   GLY A  24      13.703   5.898  17.731  0.00  0.00    -0.273 OA
BRANCH 161 164
ATOM    164  CA  THR A  25      15.074   8.240  18.229  0.00  0.00    +0.164 C 
BRANCH 164 165
ATOM    165  CB  THR A  25      15.582   9.571  18.834  0.00  0.00    +0.136 C 
ATOM    166  CG2 THR A  25      16.464  10.320  17.835  0.00  0.00    +0.034 C 
BRANCH 165 167
ATOM    167  OG1 THR A  25      14.461  10.398  19.173  0.00  0.00    -0.382 OA
ATOM    168  HG1 THR A  25      13.894   9.928  19.835  0.00  0.00    +0.210 HD
ENDBRANCH 165 167
ENDBRANCH 164 165
BRANCH 164 169
ATOM    169  C   THR A  25      16.258   7.480  17.639  0.00  0.00    +0.229 C 
ATOM    170  O   THR A  25      16.453   7.471  16.418  0.00  0.00    -0.286 OA
ENDBRANCH 164 169
ENDBRANCH 161 164
ENDBRANCH 159 160
ENDBRANCH 156 159
ENDBRANCH 154 155
BRANCH 154 171
ATOM    171  CB  SER A  23      15.307   3.781  23.463  0.00  0.00    +0.166 C 
BRANCH 171 172
ATOM    172  OG  SER A  23      13.998   4.085  23.911  0.00  0.00    -0.380 OA
ATOM    173  H   SER A  23      14.011   4.942  24.406  0.00  0.00    +0.211 HD
ENDBRANCH 171 172
ENDBRANCH 154 171
ENDBRANCH 151 154
ENDBRANCH 149 150
BRANCH 149 174
ATOM    174  CB  LYS A  22      17.097   8.593  24.551  0.00  0.00    +0.029 C 
BRANCH 174 175
ATOM    175  CG  LYS A  22      18.544   8.247  24.197  0.00  0.00    +0.000 C 
BRANCH 175 176
ATOM    176  CD  LYS A  22      19.533   8.795  25.213  0.00  0.00    -0.024 C 
BRANCH 176 177
ATOM    177  CE  LYS A  22      19.364   8.148  26.570  0.00  0.00    -0.086 C 
BRANCH 177 178
ATOM    178  NZ  LYS A  22      20.323   8.700  27.572  0.00  0.00    +0.380 N 
ATOM    179  HZ1 LYS A  22      20.174   8.230  28.488  0.00  0.00    -0.089 HD
ATOM    180  HZ2 LYS A  22      20.164   9.723  27.676  0.00  0.00    -0.089 HD
ATOM    181  HZ3 LYS A  22      21.297   8.530  27.248  0.00  0.00    -0.089 HD
ENDBRANCH 177 178
ENDBRANCH 176 177
ENDBRANCH 175 176
ENDBRANCH 174 175
ENDBRANCH 149 174
ENDBRANCH 146 149
ENDBRANCH 143 145
ENDBRANCH 140 143
ENDBRANCH 138 139
BRANCH 138 182
ATOM    182  CB  ILE A  20      10.037   6.623  25.596  0.00  0.00    +0.027 C 
ATOM    183  CG2 ILE A  20       9.412   6.190  24.275  0.00  0.00    +0.002 C 
BRANCH 182 184
ATOM    184  CG1 ILE A  20       9.559   5.720  26.737  0.00  0.00    +0.002 C 
ATOM    185  CD1 ILE A  20       9.814   4.242  26.521  0.00  0.00    +0.000 C 
ENDBRANCH 182 184
ENDBRANCH 138 182
ENDBRANCH 135 138
ENDBRANCH 133 134
BRANCH 133 186
ATOM    186  CB  THR A  19      13.825   6.759  29.313  0.00  0.00    +0.137 C 
ATOM    187  CG2 THR A  19      14.453   5.405  29.042  0.00  0.00    +0.034 C 
BRANCH 186 188
ATOM    188  OG1 THR A  19      14.391   7.312  30.508  0.00  0.00    -0.382 OA
ATOM    189  HG1 THR A  19      13.969   8.187  30.697  0.00  0.00    +0.210 HD
ENDBRANCH 186 188
ENDBRANCH 133 186
ENDBRANCH 130 133
ENDBRANCH 128 129
ENDBRANCH 125 128
ENDBRANCH 123 124
BRANCH 123 190
ATOM    190  CB  LEU A  17       8.190  10.982  27.921  0.00  0.00    +0.029 C 
BRANCH 190 191
ATOM    191  CG  LEU A  17       6.816  10.384  28.237  0.00  0.00    +0.002 C 
ATOM    192  CD2 LEU A  17       5.752  11.462  28.290  0.00  0.00    +0.000 C 
ATOM    193  CD1 LEU A  17       6.480   9.350  27.171  0.00  0.00    +0.000 C 
ENDBRANCH 190 191
ENDBRANCH 123 190
ENDBRANCH 120 123
ENDBRANCH 118 119
BRANCH 118 194
ATOM    194  CB  ASN A  16       8.747   8.234  32.231  0.00  0.00    +0.114 C 
BRANCH 194 195
ATOM    195  CG  ASN A  16       8.760   7.922  33.718  0.00  0.00    +0.222 C 
ATOM    196  ND2 ASN A  16       7.720   7.925  34.374  0.00  0.00    -0.329 N 
ATOM    197 HD21 ASN A  16       7.746   7.711  35.391  0.00  0.00    +0.145 HD
ATOM    198 HD22 ASN A  16       6.814   8.142  33.911  0.00  0.00    +0.145 HD
ATOM    199  OD1 ASN A  16       9.946   7.652  34.257  0.00  0.00    -0.275 OA
ENDBRANCH 194 195
ENDBRANCH 118 194
ENDBRANCH 115 118
ENDBRANCH 113 114
BRANCH 113 200
ATOM    200  CB  ASN A  15      12.482  11.183  34.349  0.00  0.00    +0.114 C 
BRANCH 200 201
ATOM    201  CG  ASN A  15      13.380  12.177  35.073  0.00  0.00    +0.222 C 
ATOM    202  ND2 ASN A  15      13.443  12.196  36.305  0.00  0.00    -0.329 N 
ATOM    203 HD21 ASN A  15      12.872  11.532  36.865  0.00  0.00    +0.145 HD
ATOM    204 HD22 ASN A  15      14.067  12.876  36.783  0.00  0.00    +0.145 HD
ATOM    205  OD1 ASN A  15      14.084  12.999  34.311  0.00  0.00    -0.275 OA
ENDBRANCH 200 201
ENDBRANCH 113 200
ENDBRANCH 110 113
ENDBRANCH 108 109
BRANCH 108 206
ATOM    206  CB  ILE A  14      10.825  15.713  33.737  0.00  0.00    +0.027 C 
ATOM    207  CG2 ILE A  14      12.315  16.025  33.845  0.00  0.00    +0.002 C 
BRANCH 206 208
ATOM    208  CG1 ILE A  14       9.991  16.994  33.829  0.00  0.00    +0.002 C 
ATOM    209  CD1 ILE A  14      10.018  17.662  35.194  0.00  0.00    +0.000 C 
ENDBRANCH 206 208
ENDBRANCH 108 206
ENDBRANCH 105 108
ENDBRANCH   1 104
BRANCH   1 210
ATOM    210  CB  LEU A  13       6.221  15.650  31.675  0.00  0.00    +0.029 C 
BRANCH 210 211
ATOM    211  CG  LEU A  13       4.720  15.645  31.399  0.00  0.00    +0.002 C 
ATOM    212  CD2 LEU A  13       4.086  16.866  32.039  0.00  0.00    +0.000 C 
ATOM    213  CD1 LEU A  13       4.483  15.637  29.894  0.00  0.00    +0.000 C 
ENDBRANCH 210 211
ENDBRANCH   1 210
TORSDOF 94
REMARK  Name = ../refined-set-2016/2yki/2yki_pocket.pdb
REMARK  281 active torsions:
REMARK  status: ('A' for Active; 'I' for Inactive)
REMARK    1  A    between atoms: _1  and  _3
REMARK    2  A    between atoms: _3  and  _4
REMARK    3  A    between atoms: _3  and  _6
REMARK    4  A    between atoms: _6  and  _7
REMARK    5  A    between atoms: _13  and  _15
REMARK    6  A    between atoms: _15  and  _16
REMARK    7  A    between atoms: _19  and  _21
REMARK    8  A    between atoms: _21  and  _22
REMARK    9  A    between atoms: _21  and  _24
REMARK   10  A    between atoms: _24  and  _25
REMARK   11  A    between atoms: _31  and  _33
REMARK   12  A    between atoms: _33  and  _34
REMARK   13  A    between atoms: _33  and  _36
REMARK   14  A    between atoms: _36  and  _37
REMARK   15  A    between atoms: _37  and  _38
REMARK   16  A    between atoms: _43  and  _45
REMARK   17  A    between atoms: _45  and  _46
REMARK   18  A    between atoms: _45  and  _48
REMARK   19  A    between atoms: _48  and  _49
REMARK   20  A    between atoms: _52  and  _54
REMARK   21  A    between atoms: _54  and  _55
REMARK   22  A    between atoms: _58  and  _60
REMARK   23  A    between atoms: _60  and  _61
REMARK   24  A    between atoms: _60  and  _63
REMARK   25  A    between atoms: _63  and  _64
REMARK   26  A    between atoms: _67  and  _69
REMARK   27  A    between atoms: _69  and  _70
REMARK   28  A    between atoms: _69  and  _72
REMARK   29  A    between atoms: _72  and  _73
REMARK   30  A    between atoms: _73  and  _74
REMARK   31  A    between atoms: _76  and  _78
REMARK   32  A    between atoms: _78  and  _79
REMARK   33  A    between atoms: _78  and  _81
REMARK   34  A    between atoms: _81  and  _82
REMARK   35  A    between atoms: _82  and  _83
REMARK   36  A    between atoms: _86  and  _88
REMARK   37  A    between atoms: _88  and  _89
REMARK   38  A    between atoms: _88  and  _91
REMARK   39  A    between atoms: _91  and  _92
REMARK   40  A    between atoms: _95  and  _97
REMARK   41  A    between atoms: _97  and  _98
REMARK   42  A    between atoms: _97  and  _100
REMARK   43  A    between atoms: _100  and  _101
REMARK   44  A    between atoms: _104  and  _106
REMARK   45  A    between atoms: _106  and  _107
REMARK   46  A    between atoms: _106  and  _109
REMARK   47  A    between atoms: _109  and  _110
REMARK   48  A    between atoms: _112  and  _114
REMARK   49  A    between atoms: _114  and  _115
REMARK   50  A    between atoms: _114  and  _117
REMARK   51  A    between atoms: _117  and  _118
REMARK   52  A    between atoms: _123  and  _125
REMARK   53  A    between atoms: _125  and  _126
REMARK   54  A    between atoms: _125  and  _128
REMARK   55  A    between atoms: _128  and  _129
REMARK   56  A    between atoms: _131  and  _133
REMARK   57  A    between atoms: _133  and  _134
REMARK   58  A    between atoms: _133  and  _136
REMARK   59  A    between atoms: _136  and  _137
REMARK   60  A    between atoms: _139  and  _141
REMARK   61  A    between atoms: _141  and  _142
REMARK   62  A    between atoms: _141  and  _144
REMARK   63  A    between atoms: _144  and  _145
REMARK   64  A    between atoms: _148  and  _150
REMARK   65  A    between atoms: _150  and  _151
REMARK   66  A    between atoms: _154  and  _156
REMARK   67  A    between atoms: _156  and  _157
REMARK   68  A    between atoms: _156  and  _159
REMARK   69  A    between atoms: _159  and  _160
REMARK   70  A    between atoms: _163  and  _165
REMARK   71  A    between atoms: _165  and  _166
REMARK   72  A    between atoms: _165  and  _168
REMARK   73  A    between atoms: _168  and  _169
REMARK   74  A    between atoms: _169  and  _170
REMARK   75  A    between atoms: _170  and  _171
REMARK   76  A    between atoms: _171  and  _172
REMARK   77  A    between atoms: _176  and  _178
REMARK   78  A    between atoms: _178  and  _179
REMARK   79  A    between atoms: _178  and  _181
REMARK   80  A    between atoms: _181  and  _182
REMARK   81  A    between atoms: _185  and  _187
REMARK   82  A    between atoms: _187  and  _188
REMARK   83  A    between atoms: _187  and  _190
REMARK   84  A    between atoms: _190  and  _191
REMARK   85  A    between atoms: _194  and  _196
REMARK   86  A    between atoms: _196  and  _197
REMARK   87  A    between atoms: _196  and  _199
REMARK   88  A    between atoms: _202  and  _204
REMARK   89  A    between atoms: _204  and  _205
REMARK   90  A    between atoms: _204  and  _207
REMARK   91  A    between atoms: _207  and  _208
REMARK   92  A    between atoms: _211  and  _213
REMARK   93  A    between atoms: _213  and  _214
REMARK   94  A    between atoms: _213  and  _216
REMARK   95  A    between atoms: _216  and  _217
REMARK   96  A    between atoms: _220  and  _222
REMARK   97  A    between atoms: _222  and  _223
REMARK   98  A    between atoms: _225  and  _227
REMARK   99  A    between atoms: _227  and  _228
REMARK  100  A    between atoms: _227  and  _230
REMARK  101  A    between atoms: _230  and  _231
REMARK  102  A    between atoms: _234  and  _236
REMARK  103  A    between atoms: _236  and  _237
REMARK  104  A    between atoms: _239  and  _241
REMARK  105  A    between atoms: _241  and  _242
REMARK  106  A    between atoms: _241  and  _244
REMARK  107  A    between atoms: _244  and  _245
REMARK  108  A    between atoms: _245  and  _246
REMARK  109  A    between atoms: _248  and  _250
REMARK  110  A    between atoms: _250  and  _251
REMARK  111  A    between atoms: _250  and  _253
REMARK  112  A    between atoms: _253  and  _254
REMARK  113  A    between atoms: _257  and  _259
REMARK  114  A    between atoms: _259  and  _260
REMARK  115  A    between atoms: _259  and  _262
REMARK  116  A    between atoms: _262  and  _263
REMARK  117  A    between atoms: _263  and  _264
REMARK  118  A    between atoms: _264  and  _265
REMARK  119  A    between atoms: _265  and  _266
REMARK  120  A    between atoms: _270  and  _272
REMARK  121  A    between atoms: _272  and  _273
REMARK  122  A    between atoms: _276  and  _278
REMARK  123  A    between atoms: _278  and  _279
REMARK  124  A    between atoms: _278  and  _281
REMARK  125  A    between atoms: _281  and  _282
REMARK  126  A    between atoms: _285  and  _287
REMARK  127  A    between atoms: _287  and  _288
REMARK  128  A    between atoms: _287  and  _290
REMARK  129  A    between atoms: _290  and  _291
REMARK  130  A    between atoms: _294  and  _296
REMARK  131  A    between atoms: _296  and  _297
REMARK  132  A    between atoms: _296  and  _299
REMARK  133  A    between atoms: _299  and  _300
REMARK  134  A    between atoms: _303  and  _305
REMARK  135  A    between atoms: _305  and  _306
REMARK  136  A    between atoms: _305  and  _308
REMARK  137  A    between atoms: _308  and  _309
REMARK  138  A    between atoms: _314  and  _316
REMARK  139  A    between atoms: _316  and  _317
REMARK  140  A    between atoms: _316  and  _319
REMARK  141  A    between atoms: _319  and  _320
REMARK  142  A    between atoms: _325  and  _327
REMARK  143  A    between atoms: _327  and  _328
REMARK  144  A    between atoms: _327  and  _330
REMARK  145  A    between atoms: _330  and  _331
REMARK  146  A    between atoms: _334  and  _336
REMARK  147  A    between atoms: _336  and  _337
REMARK  148  A    between atoms: _339  and  _341
REMARK  149  A    between atoms: _341  and  _342
REMARK  150  A    between atoms: _341  and  _344
REMARK  151  A    between atoms: _344  and  _345
REMARK  152  A    between atoms: _348  and  _350
REMARK  153  A    between atoms: _350  and  _351
REMARK  154  A    between atoms: _350  and  _353
REMARK  155  A    between atoms: _353  and  _354
REMARK  156  A    between atoms: _357  and  _359
REMARK  157  A    between atoms: _359  and  _360
REMARK  158  A    between atoms: _363  and  _365
REMARK  159  A    between atoms: _365  and  _366
REMARK  160  A    between atoms: _365  and  _368
REMARK  161  A    between atoms: _368  and  _369
REMARK  162  A    between atoms: _369  and  _370
REMARK  163  A    between atoms: _370  and  _371
REMARK  164  A    between atoms: _371  and  _372
REMARK  165  A    between atoms: _376  and  _378
REMARK  166  A    between atoms: _378  and  _379
REMARK  167  A    between atoms: _378  and  _381
REMARK  168  A    between atoms: _381  and  _382
REMARK  169  A    between atoms: _384  and  _386
REMARK  170  A    between atoms: _386  and  _387
REMARK  171  A    between atoms: _389  and  _391
REMARK  172  A    between atoms: _391  and  _392
REMARK  173  A    between atoms: _391  and  _394
REMARK  174  A    between atoms: _394  and  _395
REMARK  175  A    between atoms: _398  and  _400
REMARK  176  A    between atoms: _400  and  _401
REMARK  177  A    between atoms: _400  and  _403
REMARK  178  A    between atoms: _403  and  _404
REMARK  179  A    between atoms: _410  and  _412
REMARK  180  A    between atoms: _412  and  _413
REMARK  181  A    between atoms: _415  and  _417
REMARK  182  A    between atoms: _417  and  _418
REMARK  183  A    between atoms: _417  and  _420
REMARK  184  A    between atoms: _423  and  _425
REMARK  185  A    between atoms: _425  and  _426
REMARK  186  A    between atoms: _428  and  _430
REMARK  187  A    between atoms: _430  and  _431
REMARK  188  A    between atoms: _430  and  _433
REMARK  189  A    between atoms: _433  and  _434
REMARK  190  A    between atoms: _440  and  _442
REMARK  191  A    between atoms: _442  and  _443
REMARK  192  A    between atoms: _442  and  _445
REMARK  193  A    between atoms: _445  and  _446
REMARK  194  A    between atoms: _451  and  _452
REMARK  195  A    between atoms: _454  and  _456
REMARK  196  A    between atoms: _456  and  _457
REMARK  197  A    between atoms: _456  and  _459
REMARK  198  A    between atoms: _459  and  _460
REMARK  199  A    between atoms: _462  and  _464
REMARK  200  A    between atoms: _464  and  _465
REMARK  201  A    between atoms: _468  and  _470
REMARK  202  A    between atoms: _470  and  _471
REMARK  203  A    between atoms: _470  and  _473
REMARK  204  A    between atoms: _473  and  _474
REMARK  205  A    between atoms: _479  and  _480
REMARK  206  A    between atoms: _482  and  _484
REMARK  207  A    between atoms: _484  and  _485
REMARK  208  A    between atoms: _484  and  _487
REMARK  209  A    between atoms: _490  and  _492
REMARK  210  A    between atoms: _492  and  _493
REMARK  211  A    between atoms: _492  and  _495
REMARK  212  A    between atoms: _495  and  _496
REMARK  213  A    between atoms: _499  and  _501
REMARK  214  A    between atoms: _501  and  _502
REMARK  215  A    between atoms: _501  and  _504
REMARK  216  A    between atoms: _507  and  _509
REMARK  217  A    between atoms: _509  and  _510
REMARK  218  A    between atoms: _509  and  _512
REMARK  219  A    between atoms: _512  and  _513
REMARK  220  A    between atoms: _516  and  _518
REMARK  221  A    between atoms: _518  and  _519
REMARK  222  A    between atoms: _518  and  _521
REMARK  223  A    between atoms: _521  and  _522
REMARK  224  A    between atoms: _525  and  _527
REMARK  225  A    between atoms: _527  and  _528
REMARK  226  A    between atoms: _527  and  _530
REMARK  227  A    between atoms: _530  and  _531
REMARK  228  A    between atoms: _531  and  _532
REMARK  229  A    between atoms: _532  and  _533
REMARK  230  A    between atoms: _533  and  _534
REMARK  231  A    between atoms: _538  and  _540
REMARK  232  A    between atoms: _540  and  _541
REMARK  233  A    between atoms: _540  and  _543
REMARK  234  A    between atoms: _543  and  _544
REMARK  235  A    between atoms: _549  and  _551
REMARK  236  A    between atoms: _551  and  _552
REMARK  237  A    between atoms: _555  and  _557
REMARK  238  A    between atoms: _557  and  _558
REMARK  239  A    between atoms: _557  and  _560
REMARK  240  A    between atoms: _560  and  _561
REMARK  241  A    between atoms: _571  and  _573
REMARK  242  A    between atoms: _573  and  _574
REMARK  243  A    between atoms: _573  and  _576
REMARK  244  A    between atoms: _576  and  _577
REMARK  245  A    between atoms: _577  and  _578
REMARK  246  A    between atoms: _581  and  _583
REMARK  247  A    between atoms: _583  and  _584
REMARK  248  A    between atoms: _583  and  _586
REMARK  249  A    between atoms: _586  and  _587
REMARK  250  A    between atoms: _589  and  _591
REMARK  251  A    between atoms: _591  and  _592
REMARK  252  A    between atoms: _591  and  _594
REMARK  253  A    between atoms: _594  and  _595
REMARK  254  A    between atoms: _601  and  _603
REMARK  255  A    between atoms: _603  and  _604
REMARK  256  A    between atoms: _603  and  _606
REMARK  257  A    between atoms: _606  and  _607
REMARK  258  A    between atoms: _610  and  _612
REMARK  259  A    between atoms: _612  and  _613
REMARK  260  A    between atoms: _612  and  _615
REMARK  261  A    between atoms: _618  and  _620
REMARK  262  A    between atoms: _620  and  _621
REMARK  263  A    between atoms: _620  and  _623
REMARK  264  A    between atoms: _623  and  _624
REMARK  265  A    between atoms: _624  and  _625
REMARK  266  A    between atoms: _627  and  _629
REMARK  267  A    between atoms: _629  and  _630
REMARK  268  A    between atoms: _632  and  _634
REMARK  269  A    between atoms: _634  and  _635
REMARK  270  A    between atoms: _634  and  _637
REMARK  271  A    between atoms: _637  and  _638
REMARK  272  A    between atoms: _641  and  _643
REMARK  273  A    between atoms: _643  and  _644
REMARK  274  A    between atoms: _643  and  _646
REMARK  275  A    between atoms: _646  and  _647
REMARK  276  A    between atoms: _647  and  _648
REMARK  277  A    between atoms: _648  and  _649
REMARK  278  A    between atoms: _649  and  _650
REMARK  279  A    between atoms: _654  and  _656
REMARK  280  A    between atoms: _656  and  _657
REMARK  281  A    between atoms: _656  and  _659
REMARK                            x       y       z     vdW  Elec       q    Type
REMARK                         _______ _______ _______ _____ _____    ______ ____
ROOT
ATOM      1  C   PHE A   5       5.247  13.623  18.184  0.00  0.00    +0.241 C 
ATOM      2  N   TYR A   6       6.543  13.426  17.968  0.00  0.00    -0.297 N 
ATOM      3  H   TYR A   6       6.973  12.522  18.251  0.00  0.00    +0.150 HD
ATOM      4  O   PHE A   5       4.655  14.649  17.842  0.00  0.00    -0.273 OA
ENDROOT
BRANCH   2   5
ATOM      5  CA  TYR A   6       7.376  14.443  17.345  0.00  0.00    +0.153 C 
BRANCH   5   6
ATOM      6  C   TYR A   6       7.071  14.752  15.882  0.00  0.00    +0.241 C 
ATOM      7  O   TYR A   6       7.645  15.681  15.313  0.00  0.00    -0.273 OA
ATOM      8  N   SER A   7       6.158  14.000  15.274  0.00  0.00    -0.295 N 
ATOM      9  H   SER A   7       5.708  13.213  15.784  0.00  0.00    +0.150 HD
BRANCH   8  10
ATOM     10  CA  SER A   7       5.789  14.281  13.889  0.00  0.00    +0.178 C 
BRANCH  10  11
ATOM     11  C   SER A   7       4.974  15.575  13.896  0.00  0.00    +0.243 C 
ATOM     12  N   ALA A   8       4.602  16.007  15.097  0.00  0.00    -0.297 N 
ATOM     13  H   ALA A   8       4.864  15.452  15.937  0.00  0.00    +0.150 HD
ATOM     14  O   SER A   7       4.697  16.169  12.853  0.00  0.00    -0.273 OA
BRANCH  12  15
ATOM     15  CA  ALA A   8       3.836  17.237  15.271  0.00  0.00    +0.149 C 
ATOM     16  CB  ALA A   8       3.527  17.455  16.749  0.00  0.00    +0.031 C 
BRANCH  15  17
ATOM     17  C   ALA A   8       4.625  18.418  14.724  0.00  0.00    +0.241 C 
ATOM     18  N   TYR A   9       5.949  18.309  14.768  0.00  0.00    -0.298 N 
ATOM     19  H   TYR A   9       6.382  17.443  15.148  0.00  0.00    +0.150 HD
ATOM     20  O   ALA A   8       4.050  19.402  14.260  0.00  0.00    -0.273 OA
BRANCH  18  21
ATOM     21  CA  TYR A   9       6.798  19.390  14.289  0.00  0.00    +0.141 C 
BRANCH  21  22
ATOM     22  C   TYR A   9       6.876  19.497  12.770  0.00  0.00    +0.227 C 
ATOM     23  O   TYR A   9       7.556  20.364  12.231  0.00  0.00    -0.286 OA
ENDBRANCH  21  22
BRANCH  21  24
ATOM     24  CB  TYR A   9       8.178  19.277  14.940  0.00  0.00    +0.054 C 
BRANCH  24  25
ATOM     25  CG  TYR A   9       8.113  19.637  16.413  0.00  0.00    -0.020 A 
ATOM     26  CD2 TYR A   9       8.040  18.656  17.388  0.00  0.00    -0.001 A 
ATOM     27  CE2 TYR A   9       7.895  18.993  18.736  0.00  0.00    +0.036 A 
ATOM     28  CZ  TYR A   9       7.827  20.323  19.100  0.00  0.00    +0.134 A 
ATOM     29  CE1 TYR A   9       7.904  21.314  18.147  0.00  0.00    +0.036 A 
ATOM     30  CD1 TYR A   9       8.046  20.971  16.817  0.00  0.00    -0.001 A 
BRANCH  28  31
ATOM     31  OH  TYR A   9       7.672  20.670  20.427  0.00  0.00    -0.506 OA
ATOM     32  HH  TYR A   9       7.643  21.656  20.508  0.00  0.00    +0.292 HD
ENDBRANCH  28  31
ENDBRANCH  24  25
ENDBRANCH  21  24
ENDBRANCH  18  21
ENDBRANCH  15  17
ENDBRANCH  12  15
ENDBRANCH  10  11
BRANCH  10  33
ATOM     33  CB  SER A   7       4.952  13.145  13.293  0.00  0.00    +0.166 C 
BRANCH  33  34
ATOM     34  OG  SER A   7       3.716  12.988  13.966  0.00  0.00    -0.380 OA
ATOM     35  H   SER A   7       3.885  12.781  14.919  0.00  0.00    +0.211 HD
ENDBRANCH  33  34
ENDBRANCH  10  33
ENDBRANCH   8  10
ENDBRANCH   5   6
BRANCH   5  36
ATOM     36  CB  TYR A   6       8.865  14.090  17.558  0.00  0.00    +0.055 C 
BRANCH  36  37
ATOM     37  CG  TYR A   6       9.278  14.417  18.975  0.00  0.00    -0.020 A 
ATOM     38  CD2 TYR A   6       9.314  13.437  19.960  0.00  0.00    -0.001 A 
ATOM     39  CE2 TYR A   6       9.546  13.763  21.289  0.00  0.00    +0.036 A 
ATOM     40  CZ  TYR A   6       9.751  15.088  21.635  0.00  0.00    +0.134 A 
ATOM     41  CE1 TYR A   6       9.731  16.071  20.670  0.00  0.00    +0.036 A 
ATOM     42  CD1 TYR A   6       9.497  15.737  19.356  0.00  0.00    -0.001 A 
BRANCH  40  43
ATOM     43  OH  TYR A   6       9.955  15.438  22.952  0.00  0.00    -0.506 OA
ATOM     44  HH  TYR A   6       9.167  15.171  23.489  0.00  0.00    +0.292 HD
ENDBRANCH  40  43
ENDBRANCH  36  37
ENDBRANCH   5  36
ENDBRANCH   2   5
BRANCH   1  45
ATOM     45  CA  PHE A   5       4.505  12.487  18.881  0.00  0.00    +0.153 C 
BRANCH  45  47
ATOM     46  C   GLY A   4       4.923  10.995  16.996  0.00  0.00    +0.243 C 
ATOM     47  N   PHE A   5       4.915  11.209  18.307  0.00  0.00    -0.297 N 
ATOM     48  H   PHE A   5       5.210  10.442  18.944  0.00  0.00    +0.150 HD
ATOM     49  O   GLY A   4       4.547  11.837  16.185  0.00  0.00    -0.273 OA
BRANCH  46  50
ATOM     50  CA  GLY A   4       5.401   9.629  16.538  0.00  0.00    +0.176 C 
BRANCH  50  52
ATOM     51  C   VAL A   3       7.429   9.581  17.866  0.00  0.00    +0.241 C 
ATOM     52  N   GLY A   4       6.303   8.987  17.477  0.00  0.00    -0.295 N 
ATOM     53  H   GLY A   4       6.065   8.047  17.852  0.00  0.00    +0.150 HD
ATOM     54  O   VAL A   3       7.776  10.687  17.469  0.00  0.00    -0.273 OA
BRANCH  51  55
ATOM     55  CA  VAL A   3       8.285   8.806  18.863  0.00  0.00    +0.149 C 
BRANCH  55  58
ATOM     56  C   GLY A   2       7.671   6.689  19.840  0.00  0.00    +0.243 C 
ATOM     57  O   GLY A   2       7.487   7.219  20.932  0.00  0.00    -0.273 OA
ATOM     58  N   VAL A   3       8.064   7.373  18.774  0.00  0.00    -0.297 N 
ATOM     59  H   VAL A   3       8.215   6.881  17.870  0.00  0.00    +0.150 HD
BRANCH  56  60
ATOM     60  CA  GLY A   2       7.458   5.194  19.683  0.00  0.00    +0.176 C 
BRANCH  60  63
ATOM     61  C   PHE A   1       9.222   4.424  18.218  0.00  0.00    +0.239 C 
ATOM     62  O   PHE A   1      10.099   4.834  18.979  0.00  0.00    -0.274 OA
ATOM     63  N   GLY A   2       7.924   4.565  18.463  0.00  0.00    -0.296 N 
ATOM     64  H   GLY A   2       7.231   4.219  17.769  0.00  0.00    +0.150 HD
BRANCH  61  65
ATOM     65  CA  PHE A   1       9.578   3.708  16.917  0.00  0.00    +0.149 C 
BRANCH  65  66
ATOM     66  N   PHE A   1       8.465   3.565  15.984  0.00  0.00    -0.238 NA
ATOM     67  H   PHE A   1       8.083   4.407  15.508  0.00  0.00    +0.142 HD
ENDBRANCH  65  66
BRANCH  65  68
ATOM     68  CB  PHE A   1      10.748   4.399  16.208  0.00  0.00    +0.053 C 
BRANCH  68  69
ATOM     69  CG  PHE A   1      11.129   3.736  14.908  0.00  0.00    -0.020 A 
ATOM     70  CD2 PHE A   1      12.049   2.693  14.888  0.00  0.00    -0.004 A 
ATOM     71  CE2 PHE A   1      12.342   2.023  13.707  0.00  0.00    -0.000 A 
ATOM     72  CZ  PHE A   1      11.719   2.394  12.528  0.00  0.00    -0.000 A 
ATOM     73  CE1 PHE A   1      10.802   3.437  12.533  0.00  0.00    -0.000 A 
ATOM     74  CD1 PHE A   1      10.514   4.101  13.720  0.00  0.00    -0.004 A 
ENDBRANCH  68  69
ENDBRANCH  65  68
ENDBRANCH  61  65
ENDBRANCH  60  63
ENDBRANCH  56  60
ENDBRANCH  55  58
BRANCH  55  75
ATOM     75  CB  VAL A   3       9.780   9.152  18.663  0.00  0.00    +0.027 C 
ATOM     76  CG2 VAL A   3      10.563   8.780  19.906  0.00  0.00    +0.002 C 
ATOM     77  CG1 VAL A   3      10.333   8.403  17.454  0.00  0.00    +0.002 C 
ENDBRANCH  55  75
ENDBRANCH  51  55
ENDBRANCH  50  52
ENDBRANCH  46  50
ENDBRANCH  45  47
BRANCH  45  78
ATOM     78  CB  PHE A   5       4.842  12.522  20.378  0.00  0.00    +0.055 C 
BRANCH  78  79
ATOM     79  CG  PHE A   5       4.719  13.888  21.005  0.00  0.00    -0.020 A 
ATOM     80  CD2 PHE A   5       5.858  14.597  21.358  0.00  0.00    -0.004 A 
ATOM     81  CE2 PHE A   5       5.767  15.843  21.962  0.00  0.00    -0.000 A 
ATOM     82  CZ  PHE A   5       4.532  16.394  22.219  0.00  0.00    -0.000 A 
ATOM     83  CE1 PHE A   5       3.381  15.700  21.870  0.00  0.00    -0.000 A 
ATOM     84  CD1 PHE A   5       3.477  14.453  21.266  0.00  0.00    -0.004 A 
ENDBRANCH  78  79
ENDBRANCH  45  78
ENDBRANCH   1  45
TORSDOF 31
REMARK  Name = ../refined-set-2016/2yki/2yki_pocket.pdb
REMARK  281 active torsions:
REMARK  status: ('A' for Active; 'I' for Inactive)
REMARK    1  A    between atoms: _1  and  _3
REMARK    2  A    between atoms: _3  and  _4
REMARK    3  A    between atoms: _3  and  _6
REMARK    4  A    between atoms: _6  and  _7
REMARK    5  A    between atoms: _13  and  _15
REMARK    6  A    between atoms: _15  and  _16
REMARK    7  A    between atoms: _19  and  _21
REMARK    8  A    between atoms: _21  and  _22
REMARK    9  A    between atoms: _21  and  _24
REMARK   10  A    between atoms: _24  and  _25
REMARK   11  A    between atoms: _31  and  _33
REMARK   12  A    between atoms: _33  and  _34
REMARK   13  A    between atoms: _33  and  _36
REMARK   14  A    between atoms: _36  and  _37
REMARK   15  A    between atoms: _37  and  _38
REMARK   16  A    between atoms: _43  and  _45
REMARK   17  A    between atoms: _45  and  _46
REMARK   18  A    between atoms: _45  and  _48
REMARK   19  A    between atoms: _48  and  _49
REMARK   20  A    between atoms: _52  and  _54
REMARK   21  A    between atoms: _54  and  _55
REMARK   22  A    between atoms: _58  and  _60
REMARK   23  A    between atoms: _60  and  _61
REMARK   24  A    between atoms: _60  and  _63
REMARK   25  A    between atoms: _63  and  _64
REMARK   26  A    between atoms: _67  and  _69
REMARK   27  A    between atoms: _69  and  _70
REMARK   28  A    between atoms: _69  and  _72
REMARK   29  A    between atoms: _72  and  _73
REMARK   30  A    between atoms: _73  and  _74
REMARK   31  A    between atoms: _76  and  _78
REMARK   32  A    between atoms: _78  and  _79
REMARK   33  A    between atoms: _78  and  _81
REMARK   34  A    between atoms: _81  and  _82
REMARK   35  A    between atoms: _82  and  _83
REMARK   36  A    between atoms: _86  and  _88
REMARK   37  A    between atoms: _88  and  _89
REMARK   38  A    between atoms: _88  and  _91
REMARK   39  A    between atoms: _91  and  _92
REMARK   40  A    between atoms: _95  and  _97
REMARK   41  A    between atoms: _97  and  _98
REMARK   42  A    between atoms: _97  and  _100
REMARK   43  A    between atoms: _100  and  _101
REMARK   44  A    between atoms: _104  and  _106
REMARK   45  A    between atoms: _106  and  _107
REMARK   46  A    between atoms: _106  and  _109
REMARK   47  A    between atoms: _109  and  _110
REMARK   48  A    between atoms: _112  and  _114
REMARK   49  A    between atoms: _114  and  _115
REMARK   50  A    between atoms: _114  and  _117
REMARK   51  A    between atoms: _117  and  _118
REMARK   52  A    between atoms: _123  and  _125
REMARK   53  A    between atoms: _125  and  _126
REMARK   54  A    between atoms: _125  and  _128
REMARK   55  A    between atoms: _128  and  _129
REMARK   56  A    between atoms: _131  and  _133
REMARK   57  A    between atoms: _133  and  _134
REMARK   58  A    between atoms: _133  and  _136
REMARK   59  A    between atoms: _136  and  _137
REMARK   60  A    between atoms: _139  and  _141
REMARK   61  A    between atoms: _141  and  _142
REMARK   62  A    between atoms: _141  and  _144
REMARK   63  A    between atoms: _144  and  _145
REMARK   64  A    between atoms: _148  and  _150
REMARK   65  A    between atoms: _150  and  _151
REMARK   66  A    between atoms: _154  and  _156
REMARK   67  A    between atoms: _156  and  _157
REMARK   68  A    between atoms: _156  and  _159
REMARK   69  A    between atoms: _159  and  _160
REMARK   70  A    between atoms: _163  and  _165
REMARK   71  A    between atoms: _165  and  _166
REMARK   72  A    between atoms: _165  and  _168
REMARK   73  A    between atoms: _168  and  _169
REMARK   74  A    between atoms: _169  and  _170
REMARK   75  A    between atoms: _170  and  _171
REMARK   76  A    between atoms: _171  and  _172
REMARK   77  A    between atoms: _176  and  _178
REMARK   78  A    between atoms: _178  and  _179
REMARK   79  A    between atoms: _178  and  _181
REMARK   80  A    between atoms: _181  and  _182
REMARK   81  A    between atoms: _185  and  _187
REMARK   82  A    between atoms: _187  and  _188
REMARK   83  A    between atoms: _187  and  _190
REMARK   84  A    between atoms: _190  and  _191
REMARK   85  A    between atoms: _194  and  _196
REMARK   86  A    between atoms: _196  and  _197
REMARK   87  A    between atoms: _196  and  _199
REMARK   88  A    between atoms: _202  and  _204
REMARK   89  A    between atoms: _204  and  _205
REMARK   90  A    between atoms: _204  and  _207
REMARK   91  A    between atoms: _207  and  _208
REMARK   92  A    between atoms: _211  and  _213
REMARK   93  A    between atoms: _213  and  _214
REMARK   94  A    between atoms: _213  and  _216
REMARK   95  A    between atoms: _216  and  _217
REMARK   96  A    between atoms: _220  and  _222
REMARK   97  A    between atoms: _222  and  _223
REMARK   98  A    between atoms: _225  and  _227
REMARK   99  A    between atoms: _227  and  _228
REMARK  100  A    between atoms: _227  and  _230
REMARK  101  A    between atoms: _230  and  _231
REMARK  102  A    between atoms: _234  and  _236
REMARK  103  A    between atoms: _236  and  _237
REMARK  104  A    between atoms: _239  and  _241
REMARK  105  A    between atoms: _241  and  _242
REMARK  106  A    between atoms: _241  and  _244
REMARK  107  A    between atoms: _244  and  _245
REMARK  108  A    between atoms: _245  and  _246
REMARK  109  A    between atoms: _248  and  _250
REMARK  110  A    between atoms: _250  and  _251
REMARK  111  A    between atoms: _250  and  _253
REMARK  112  A    between atoms: _253  and  _254
REMARK  113  A    between atoms: _257  and  _259
REMARK  114  A    between atoms: _259  and  _260
REMARK  115  A    between atoms: _259  and  _262
REMARK  116  A    between atoms: _262  and  _263
REMARK  117  A    between atoms: _263  and  _264
REMARK  118  A    between atoms: _264  and  _265
REMARK  119  A    between atoms: _265  and  _266
REMARK  120  A    between atoms: _270  and  _272
REMARK  121  A    between atoms: _272  and  _273
REMARK  122  A    between atoms: _276  and  _278
REMARK  123  A    between atoms: _278  and  _279
REMARK  124  A    between atoms: _278  and  _281
REMARK  125  A    between atoms: _281  and  _282
REMARK  126  A    between atoms: _285  and  _287
REMARK  127  A    between atoms: _287  and  _288
REMARK  128  A    between atoms: _287  and  _290
REMARK  129  A    between atoms: _290  and  _291
REMARK  130  A    between atoms: _294  and  _296
REMARK  131  A    between atoms: _296  and  _297
REMARK  132  A    between atoms: _296  and  _299
REMARK  133  A    between atoms: _299  and  _300
REMARK  134  A    between atoms: _303  and  _305
REMARK  135  A    between atoms: _305  and  _306
REMARK  136  A    between atoms: _305  and  _308
REMARK  137  A    between atoms: _308  and  _309
REMARK  138  A    between atoms: _314  and  _316
REMARK  139  A    between atoms: _316  and  _317
REMARK  140  A    between atoms: _316  and  _319
REMARK  141  A    between atoms: _319  and  _320
REMARK  142  A    between atoms: _325  and  _327
REMARK  143  A    between atoms: _327  and  _328
REMARK  144  A    between atoms: _327  and  _330
REMARK  145  A    between atoms: _330  and  _331
REMARK  146  A    between atoms: _334  and  _336
REMARK  147  A    between atoms: _336  and  _337
REMARK  148  A    between atoms: _339  and  _341
REMARK  149  A    between atoms: _341  and  _342
REMARK  150  A    between atoms: _341  and  _344
REMARK  151  A    between atoms: _344  and  _345
REMARK  152  A    between atoms: _348  and  _350
REMARK  153  A    between atoms: _350  and  _351
REMARK  154  A    between atoms: _350  and  _353
REMARK  155  A    between atoms: _353  and  _354
REMARK  156  A    between atoms: _357  and  _359
REMARK  157  A    between atoms: _359  and  _360
REMARK  158  A    between atoms: _363  and  _365
REMARK  159  A    between atoms: _365  and  _366
REMARK  160  A    between atoms: _365  and  _368
REMARK  161  A    between atoms: _368  and  _369
REMARK  162  A    between atoms: _369  and  _370
REMARK  163  A    between atoms: _370  and  _371
REMARK  164  A    between atoms: _371  and  _372
REMARK  165  A    between atoms: _376  and  _378
REMARK  166  A    between atoms: _378  and  _379
REMARK  167  A    between atoms: _378  and  _381
REMARK  168  A    between atoms: _381  and  _382
REMARK  169  A    between atoms: _384  and  _386
REMARK  170  A    between atoms: _386  and  _387
REMARK  171  A    between atoms: _389  and  _391
REMARK  172  A    between atoms: _391  and  _392
REMARK  173  A    between atoms: _391  and  _394
REMARK  174  A    between atoms: _394  and  _395
REMARK  175  A    between atoms: _398  and  _400
REMARK  176  A    between atoms: _400  and  _401
REMARK  177  A    between atoms: _400  and  _403
REMARK  178  A    between atoms: _403  and  _404
REMARK  179  A    between atoms: _410  and  _412
REMARK  180  A    between atoms: _412  and  _413
REMARK  181  A    between atoms: _415  and  _417
REMARK  182  A    between atoms: _417  and  _418
REMARK  183  A    between atoms: _417  and  _420
REMARK  184  A    between atoms: _423  and  _425
REMARK  185  A    between atoms: _425  and  _426
REMARK  186  A    between atoms: _428  and  _430
REMARK  187  A    between atoms: _430  and  _431
REMARK  188  A    between atoms: _430  and  _433
REMARK  189  A    between atoms: _433  and  _434
REMARK  190  A    between atoms: _440  and  _442
REMARK  191  A    between atoms: _442  and  _443
REMARK  192  A    between atoms: _442  and  _445
REMARK  193  A    between atoms: _445  and  _446
REMARK  194  A    between atoms: _451  and  _452
REMARK  195  A    between atoms: _454  and  _456
REMARK  196  A    between atoms: _456  and  _457
REMARK  197  A    between atoms: _456  and  _459
REMARK  198  A    between atoms: _459  and  _460
REMARK  199  A    between atoms: _462  and  _464
REMARK  200  A    between atoms: _464  and  _465
REMARK  201  A    between atoms: _468  and  _470
REMARK  202  A    between atoms: _470  and  _471
REMARK  203  A    between atoms: _470  and  _473
REMARK  204  A    between atoms: _473  and  _474
REMARK  205  A    between atoms: _479  and  _480
REMARK  206  A    between atoms: _482  and  _484
REMARK  207  A    between atoms: _484  and  _485
REMARK  208  A    between atoms: _484  and  _487
REMARK  209  A    between atoms: _490  and  _492
REMARK  210  A    between atoms: _492  and  _493
REMARK  211  A    between atoms: _492  and  _495
REMARK  212  A    between atoms: _495  and  _496
REMARK  213  A    between atoms: _499  and  _501
REMARK  214  A    between atoms: _501  and  _502
REMARK  215  A    between atoms: _501  and  _504
REMARK  216  A    between atoms: _507  and  _509
REMARK  217  A    between atoms: _509  and  _510
REMARK  218  A    between atoms: _509  and  _512
REMARK  219  A    between atoms: _512  and  _513
REMARK  220  A    between atoms: _516  and  _518
REMARK  221  A    between atoms: _518  and  _519
REMARK  222  A    between atoms: _518  and  _521
REMARK  223  A    between atoms: _521  and  _522
REMARK  224  A    between atoms: _525  and  _527
REMARK  225  A    between atoms: _527  and  _528
REMARK  226  A    between atoms: _527  and  _530
REMARK  227  A    between atoms: _530  and  _531
REMARK  228  A    between atoms: _531  and  _532
REMARK  229  A    between atoms: _532  and  _533
REMARK  230  A    between atoms: _533  and  _534
REMARK  231  A    between atoms: _538  and  _540
REMARK  232  A    between atoms: _540  and  _541
REMARK  233  A    between atoms: _540  and  _543
REMARK  234  A    between atoms: _543  and  _544
REMARK  235  A    between atoms: _549  and  _551
REMARK  236  A    between atoms: _551  and  _552
REMARK  237  A    between atoms: _555  and  _557
REMARK  238  A    between atoms: _557  and  _558
REMARK  239  A    between atoms: _557  and  _560
REMARK  240  A    between atoms: _560  and  _561
REMARK  241  A    between atoms: _571  and  _573
REMARK  242  A    between atoms: _573  and  _574
REMARK  243  A    between atoms: _573  and  _576
REMARK  244  A    between atoms: _576  and  _577
REMARK  245  A    between atoms: _577  and  _578
REMARK  246  A    between atoms: _581  and  _583
REMARK  247  A    between atoms: _583  and  _584
REMARK  248  A    between atoms: _583  and  _586
REMARK  249  A    between atoms: _586  and  _587
REMARK  250  A    between atoms: _589  and  _591
REMARK  251  A    between atoms: _591  and  _592
REMARK  252  A    between atoms: _591  and  _594
REMARK  253  A    between atoms: _594  and  _595
REMARK  254  A    between atoms: _601  and  _603
REMARK  255  A    between atoms: _603  and  _604
REMARK  256  A    between atoms: _603  and  _606
REMARK  257  A    between atoms: _606  and  _607
REMARK  258  A    between atoms: _610  and  _612
REMARK  259  A    between atoms: _612  and  _613
REMARK  260  A    between atoms: _612  and  _615
REMARK  261  A    between atoms: _618  and  _620
REMARK  262  A    between atoms: _620  and  _621
REMARK  263  A    between atoms: _620  and  _623
REMARK  264  A    between atoms: _623  and  _624
REMARK  265  A    between atoms: _624  and  _625
REMARK  266  A    between atoms: _627  and  _629
REMARK  267  A    between atoms: _629  and  _630
REMARK  268  A    between atoms: _632  and  _634
REMARK  269  A    between atoms: _634  and  _635
REMARK  270  A    between atoms: _634  and  _637
REMARK  271  A    between atoms: _637  and  _638
REMARK  272  A    between atoms: _641  and  _643
REMARK  273  A    between atoms: _643  and  _644
REMARK  274  A    between atoms: _643  and  _646
REMARK  275  A    between atoms: _646  and  _647
REMARK  276  A    between atoms: _647  and  _648
REMARK  277  A    between atoms: _648  and  _649
REMARK  278  A    between atoms: _649  and  _650
REMARK  279  A    between atoms: _654  and  _656
REMARK  280  A    between atoms: _656  and  _657
REMARK  281  A    between atoms: _656  and  _659
REMARK                            x       y       z     vdW  Elec       q    Type
REMARK                         _______ _______ _______ _____ _____    ______ ____
ROOT
ATOM      1  C   ILE A   4      -2.077  18.603  29.223  0.00  0.00    +0.241 C 
ATOM      2  N   THR A   5      -1.726  18.144  30.414  0.00  0.00    -0.295 N 
ATOM      3  H   THR A   5      -1.217  18.752  31.086  0.00  0.00    +0.150 HD
ATOM      4  O   ILE A   4      -2.748  17.941  28.442  0.00  0.00    -0.273 OA
ENDROOT
BRANCH   2   5
ATOM      5  CA  THR A   5      -2.065  16.774  30.766  0.00  0.00    +0.176 C 
BRANCH   5   6
ATOM      6  C   THR A   5      -2.350  16.577  32.246  0.00  0.00    +0.243 C 
ATOM      7  O   THR A   5      -1.770  17.251  33.099  0.00  0.00    -0.273 OA
ATOM      8  N   LYS A   6      -3.229  15.620  32.539  0.00  0.00    -0.297 N 
ATOM      9  H   LYS A   6      -3.646  15.072  31.760  0.00  0.00    +0.150 HD
BRANCH   8  10
ATOM     10  CA  LYS A   6      -3.632  15.308  33.909  0.00  0.00    +0.149 C 
BRANCH  10  11
ATOM     11  C   LYS A   6      -3.753  13.801  34.119  0.00  0.00    +0.241 C 
ATOM     12  N   HIS A   7      -2.899  13.266  34.981  0.00  0.00    -0.298 N 
ATOM     13  H   HIS A   7      -2.207  13.889  35.445  0.00  0.00    +0.150 HD
ATOM     14  O   LYS A   6      -4.598  13.148  33.512  0.00  0.00    -0.273 OA
BRANCH  12  15
ATOM     15  CA  HIS A   7      -2.885  11.846  35.308  0.00  0.00    +0.143 C 
BRANCH  15  16
ATOM     16  C   HIS A   7      -3.499  11.716  36.702  0.00  0.00    +0.227 C 
ATOM     17  O   HIS A   7      -3.361  12.618  37.527  0.00  0.00    -0.286 OA
ENDBRANCH  15  16
BRANCH  15  18
ATOM     18  CB  HIS A   7      -1.432  11.346  35.327  0.00  0.00    +0.075 C 
BRANCH  18  19
ATOM     19  CG  HIS A   7      -1.288   9.884  35.609  0.00  0.00    +0.082 A 
ATOM     20  ND1 HIS A   7      -1.391   9.184  36.762  0.00  0.00    -0.227 NA
ATOM     21  CE1 HIS A   7      -1.161   7.865  36.460  0.00  0.00    +0.199 A 
ATOM     22  NE2 HIS A   7      -0.924   7.757  35.164  0.00  0.00    -0.221 NA
ATOM     23  CD2 HIS A   7      -0.995   8.961  34.627  0.00  0.00    +0.115 A 
ENDBRANCH  18  19
ENDBRANCH  15  18
ENDBRANCH  12  15
ENDBRANCH  10  11
BRANCH  10  24
ATOM     24  CB  LYS A   6      -4.980  15.978  34.207  0.00  0.00    +0.029 C 
BRANCH  24  25
ATOM     25  CG  LYS A   6      -5.605  15.621  35.565  0.00  0.00    +0.000 C 
BRANCH  25  26
ATOM     26  CD  LYS A   6      -4.787  16.171  36.728  0.00  0.00    -0.024 C 
BRANCH  26  27
ATOM     27  CE  LYS A   6      -5.399  15.814  38.084  0.00  0.00    -0.086 C 
BRANCH  27  28
ATOM     28  NZ  LYS A   6      -5.340  14.362  38.412  0.00  0.00    +0.380 N 
ATOM     29  HZ1 LYS A   6      -5.773  14.200  39.344  0.00  0.00    -0.089 HD
ATOM     30  HZ2 LYS A   6      -4.347  14.052  38.431  0.00  0.00    -0.089 HD
ATOM     31  HZ3 LYS A   6      -5.858  13.823  37.689  0.00  0.00    -0.089 HD
ENDBRANCH  27  28
ENDBRANCH  26  27
ENDBRANCH  25  26
ENDBRANCH  24  25
ENDBRANCH  10  24
ENDBRANCH   8  10
ENDBRANCH   5   6
BRANCH   5  32
ATOM     32  CB  THR A   5      -0.922  15.838  30.309  0.00  0.00    +0.137 C 
ATOM     33  CG2 THR A   5       0.324  16.093  31.141  0.00  0.00    +0.034 C 
BRANCH  32  34
ATOM     34  OG1 THR A   5      -1.321  14.472  30.424  0.00  0.00    -0.382 OA
ATOM     35  HG1 THR A   5      -2.116  14.313  29.856  0.00  0.00    +0.210 HD
ENDBRANCH  32  34
ENDBRANCH   5  32
ENDBRANCH   2   5
BRANCH   1  36
ATOM     36  CA  ILE A   4      -1.639  20.009  28.856  0.00  0.00    +0.149 C 
BRANCH  36  39
ATOM     37  C   VAL A   3       0.350  19.808  27.439  0.00  0.00    +0.241 C 
ATOM     38  O   VAL A   3       1.104  20.024  28.386  0.00  0.00    -0.273 OA
ATOM     39  N   ILE A   4      -0.977  19.809  27.560  0.00  0.00    -0.297 N 
ATOM     40  H   ILE A   4      -1.561  19.664  26.712  0.00  0.00    +0.150 HD
BRANCH  37  41
ATOM     41  CA  VAL A   3       0.911  19.550  26.043  0.00  0.00    +0.149 C 
BRANCH  41  43
ATOM     42  C   THR A   2       1.160  21.413  24.485  0.00  0.00    +0.243 C 
ATOM     43  N   VAL A   3       1.595  20.738  25.542  0.00  0.00    -0.297 N 
ATOM     44  H   VAL A   3       2.453  21.067  26.030  0.00  0.00    +0.150 HD
ATOM     45  O   THR A   2       0.159  21.092  23.843  0.00  0.00    -0.273 OA
BRANCH  42  46
ATOM     46  CA  THR A   2       1.982  22.624  24.085  0.00  0.00    +0.176 C 
BRANCH  46  49
ATOM     47  C   VAL A   1       3.545  22.416  22.227  0.00  0.00    +0.238 C 
ATOM     48  O   VAL A   1       4.522  22.490  22.967  0.00  0.00    -0.274 OA
ATOM     49  N   THR A   2       2.296  22.505  22.667  0.00  0.00    -0.295 N 
ATOM     50  H   THR A   2       1.517  22.489  21.978  0.00  0.00    +0.150 HD
BRANCH  47  51
ATOM     51  CA  VAL A   1       3.712  22.266  20.720  0.00  0.00    +0.145 C 
BRANCH  51  52
ATOM     52  CB  VAL A   1       4.176  20.830  20.402  0.00  0.00    +0.025 C 
ATOM     53  CG2 VAL A   1       3.145  19.831  20.917  0.00  0.00    +0.002 C 
ATOM     54  CG1 VAL A   1       4.370  20.663  18.904  0.00  0.00    +0.002 C 
ENDBRANCH  51  52
BRANCH  51  55
ATOM     55  N   VAL A   1       4.660  23.250  20.225  0.00  0.00    -0.238 NA
ATOM     56  H   VAL A   1       5.608  23.304  20.648  0.00  0.00    +0.142 HD
ENDBRANCH  51  55
ENDBRANCH  47  51
ENDBRANCH  46  49
BRANCH  46  57
ATOM     57  CB  THR A   2       1.146  23.885  24.379  0.00  0.00    +0.137 C 
ATOM     58  CG2 THR A   2       0.993  24.079  25.889  0.00  0.00    +0.034 C 
BRANCH  57  59
ATOM     59  OG1 THR A   2       1.809  25.036  23.843  0.00  0.00    -0.382 OA
ATOM     60  HG1 THR A   2       2.701  25.127  24.262  0.00  0.00    +0.210 HD
ENDBRANCH  57  59
ENDBRANCH  46  57
ENDBRANCH  42  46
ENDBRANCH  41  43
BRANCH  41  61
ATOM     61  CB  VAL A   3       1.888  18.346  26.116  0.00  0.00    +0.027 C 
ATOM     62  CG2 VAL A   3       1.183  17.123  26.682  0.00  0.00    +0.002 C 
ATOM     63  CG1 VAL A   3       2.443  18.049  24.729  0.00  0.00    +0.002 C 
ENDBRANCH  41  61
ENDBRANCH  37  41
ENDBRANCH  36  39
BRANCH  36  64
ATOM     64  CB  ILE A   4      -2.899  20.891  28.758  0.00  0.00    +0.027 C 
ATOM     65  CG2 ILE A   4      -3.438  21.166  30.160  0.00  0.00    +0.002 C 
BRANCH  64  66
ATOM     66  CG1 ILE A   4      -2.571  22.205  28.048  0.00  0.00    +0.002 C 
ATOM     67  CD1 ILE A   4      -1.492  23.020  28.731  0.00  0.00    +0.000 C 
ENDBRANCH  64  66
ENDBRANCH  36  64
ENDBRANCH   1  36
TORSDOF 29
REMARK  Name = ../refined-set-2016/2yki/2yki_pocket.pdb
REMARK  281 active torsions:
REMARK  status: ('A' for Active; 'I' for Inactive)
REMARK    1  A    between atoms: _1  and  _3
REMARK    2  A    between atoms: _3  and  _4
REMARK    3  A    between atoms: _3  and  _6
REMARK    4  A    between atoms: _6  and  _7
REMARK    5  A    between atoms: _13  and  _15
REMARK    6  A    between atoms: _15  and  _16
REMARK    7  A    between atoms: _19  and  _21
REMARK    8  A    between atoms: _21  and  _22
REMARK    9  A    between atoms: _21  and  _24
REMARK   10  A    between atoms: _24  and  _25
REMARK   11  A    between atoms: _31  and  _33
REMARK   12  A    between atoms: _33  and  _34
REMARK   13  A    between atoms: _33  and  _36
REMARK   14  A    between atoms: _36  and  _37
REMARK   15  A    between atoms: _37  and  _38
REMARK   16  A    between atoms: _43  and  _45
REMARK   17  A    between atoms: _45  and  _46
REMARK   18  A    between atoms: _45  and  _48
REMARK   19  A    between atoms: _48  and  _49
REMARK   20  A    between atoms: _52  and  _54
REMARK   21  A    between atoms: _54  and  _55
REMARK   22  A    between atoms: _58  and  _60
REMARK   23  A    between atoms: _60  and  _61
REMARK   24  A    between atoms: _60  and  _63
REMARK   25  A    between atoms: _63  and  _64
REMARK   26  A    between atoms: _67  and  _69
REMARK   27  A    between atoms: _69  and  _70
REMARK   28  A    between atoms: _69  and  _72
REMARK   29  A    between atoms: _72  and  _73
REMARK   30  A    between atoms: _73  and  _74
REMARK   31  A    between atoms: _76  and  _78
REMARK   32  A    between atoms: _78  and  _79
REMARK   33  A    between atoms: _78  and  _81
REMARK   34  A    between atoms: _81  and  _82
REMARK   35  A    between atoms: _82  and  _83
REMARK   36  A    between atoms: _86  and  _88
REMARK   37  A    between atoms: _88  and  _89
REMARK   38  A    between atoms: _88  and  _91
REMARK   39  A    between atoms: _91  and  _92
REMARK   40  A    between atoms: _95  and  _97
REMARK   41  A    between atoms: _97  and  _98
REMARK   42  A    between atoms: _97  and  _100
REMARK   43  A    between atoms: _100  and  _101
REMARK   44  A    between atoms: _104  and  _106
REMARK   45  A    between atoms: _106  and  _107
REMARK   46  A    between atoms: _106  and  _109
REMARK   47  A    between atoms: _109  and  _110
REMARK   48  A    between atoms: _112  and  _114
REMARK   49  A    between atoms: _114  and  _115
REMARK   50  A    between atoms: _114  and  _117
REMARK   51  A    between atoms: _117  and  _118
REMARK   52  A    between atoms: _123  and  _125
REMARK   53  A    between atoms: _125  and  _126
REMARK   54  A    between atoms: _125  and  _128
REMARK   55  A    between atoms: _128  and  _129
REMARK   56  A    between atoms: _131  and  _133
REMARK   57  A    between atoms: _133  and  _134
REMARK   58  A    between atoms: _133  and  _136
REMARK   59  A    between atoms: _136  and  _137
REMARK   60  A    between atoms: _139  and  _141
REMARK   61  A    between atoms: _141  and  _142
REMARK   62  A    between atoms: _141  and  _144
REMARK   63  A    between atoms: _144  and  _145
REMARK   64  A    between atoms: _148  and  _150
REMARK   65  A    between atoms: _150  and  _151
REMARK   66  A    between atoms: _154  and  _156
REMARK   67  A    between atoms: _156  and  _157
REMARK   68  A    between atoms: _156  and  _159
REMARK   69  A    between atoms: _159  and  _160
REMARK   70  A    between atoms: _163  and  _165
REMARK   71  A    between atoms: _165  and  _166
REMARK   72  A    between atoms: _165  and  _168
REMARK   73  A    between atoms: _168  and  _169
REMARK   74  A    between atoms: _169  and  _170
REMARK   75  A    between atoms: _170  and  _171
REMARK   76  A    between atoms: _171  and  _172
REMARK   77  A    between atoms: _176  and  _178
REMARK   78  A    between atoms: _178  and  _179
REMARK   79  A    between atoms: _178  and  _181
REMARK   80  A    between atoms: _181  and  _182
REMARK   81  A    between atoms: _185  and  _187
REMARK   82  A    between atoms: _187  and  _188
REMARK   83  A    between atoms: _187  and  _190
REMARK   84  A    between atoms: _190  and  _191
REMARK   85  A    between atoms: _194  and  _196
REMARK   86  A    between atoms: _196  and  _197
REMARK   87  A    between atoms: _196  and  _199
REMARK   88  A    between atoms: _202  and  _204
REMARK   89  A    between atoms: _204  and  _205
REMARK   90  A    between atoms: _204  and  _207
REMARK   91  A    between atoms: _207  and  _208
REMARK   92  A    between atoms: _211  and  _213
REMARK   93  A    between atoms: _213  and  _214
REMARK   94  A    between atoms: _213  and  _216
REMARK   95  A    between atoms: _216  and  _217
REMARK   96  A    between atoms: _220  and  _222
REMARK   97  A    between atoms: _222  and  _223
REMARK   98  A    between atoms: _225  and  _227
REMARK   99  A    between atoms: _227  and  _228
REMARK  100  A    between atoms: _227  and  _230
REMARK  101  A    between atoms: _230  and  _231
REMARK  102  A    between atoms: _234  and  _236
REMARK  103  A    between atoms: _236  and  _237
REMARK  104  A    between atoms: _239  and  _241
REMARK  105  A    between atoms: _241  and  _242
REMARK  106  A    between atoms: _241  and  _244
REMARK  107  A    between atoms: _244  and  _245
REMARK  108  A    between atoms: _245  and  _246
REMARK  109  A    between atoms: _248  and  _250
REMARK  110  A    between atoms: _250  and  _251
REMARK  111  A    between atoms: _250  and  _253
REMARK  112  A    between atoms: _253  and  _254
REMARK  113  A    between atoms: _257  and  _259
REMARK  114  A    between atoms: _259  and  _260
REMARK  115  A    between atoms: _259  and  _262
REMARK  116  A    between atoms: _262  and  _263
REMARK  117  A    between atoms: _263  and  _264
REMARK  118  A    between atoms: _264  and  _265
REMARK  119  A    between atoms: _265  and  _266
REMARK  120  A    between atoms: _270  and  _272
REMARK  121  A    between atoms: _272  and  _273
REMARK  122  A    between atoms: _276  and  _278
REMARK  123  A    between atoms: _278  and  _279
REMARK  124  A    between atoms: _278  and  _281
REMARK  125  A    between atoms: _281  and  _282
REMARK  126  A    between atoms: _285  and  _287
REMARK  127  A    between atoms: _287  and  _288
REMARK  128  A    between atoms: _287  and  _290
REMARK  129  A    between atoms: _290  and  _291
REMARK  130  A    between atoms: _294  and  _296
REMARK  131  A    between atoms: _296  and  _297
REMARK  132  A    between atoms: _296  and  _299
REMARK  133  A    between atoms: _299  and  _300
REMARK  134  A    between atoms: _303  and  _305
REMARK  135  A    between atoms: _305  and  _306
REMARK  136  A    between atoms: _305  and  _308
REMARK  137  A    between atoms: _308  and  _309
REMARK  138  A    between atoms: _314  and  _316
REMARK  139  A    between atoms: _316  and  _317
REMARK  140  A    between atoms: _316  and  _319
REMARK  141  A    between atoms: _319  and  _320
REMARK  142  A    between atoms: _325  and  _327
REMARK  143  A    between atoms: _327  and  _328
REMARK  144  A    between atoms: _327  and  _330
REMARK  145  A    between atoms: _330  and  _331
REMARK  146  A    between atoms: _334  and  _336
REMARK  147  A    between atoms: _336  and  _337
REMARK  148  A    between atoms: _339  and  _341
REMARK  149  A    between atoms: _341  and  _342
REMARK  150  A    between atoms: _341  and  _344
REMARK  151  A    between atoms: _344  and  _345
REMARK  152  A    between atoms: _348  and  _350
REMARK  153  A    between atoms: _350  and  _351
REMARK  154  A    between atoms: _350  and  _353
REMARK  155  A    between atoms: _353  and  _354
REMARK  156  A    between atoms: _357  and  _359
REMARK  157  A    between atoms: _359  and  _360
REMARK  158  A    between atoms: _363  and  _365
REMARK  159  A    between atoms: _365  and  _366
REMARK  160  A    between atoms: _365  and  _368
REMARK  161  A    between atoms: _368  and  _369
REMARK  162  A    between atoms: _369  and  _370
REMARK  163  A    between atoms: _370  and  _371
REMARK  164  A    between atoms: _371  and  _372
REMARK  165  A    between atoms: _376  and  _378
REMARK  166  A    between atoms: _378  and  _379
REMARK  167  A    between atoms: _378  and  _381
REMARK  168  A    between atoms: _381  and  _382
REMARK  169  A    between atoms: _384  and  _386
REMARK  170  A    between atoms: _386  and  _387
REMARK  171  A    between atoms: _389  and  _391
REMARK  172  A    between atoms: _391  and  _392
REMARK  173  A    between atoms: _391  and  _394
REMARK  174  A    between atoms: _394  and  _395
REMARK  175  A    between atoms: _398  and  _400
REMARK  176  A    between atoms: _400  and  _401
REMARK  177  A    between atoms: _400  and  _403
REMARK  178  A    between atoms: _403  and  _404
REMARK  179  A    between atoms: _410  and  _412
REMARK  180  A    between atoms: _412  and  _413
REMARK  181  A    between atoms: _415  and  _417
REMARK  182  A    between atoms: _417  and  _418
REMARK  183  A    between atoms: _417  and  _420
REMARK  184  A    between atoms: _423  and  _425
REMARK  185  A    between atoms: _425  and  _426
REMARK  186  A    between atoms: _428  and  _430
REMARK  187  A    between atoms: _430  and  _431
REMARK  188  A    between atoms: _430  and  _433
REMARK  189  A    between atoms: _433  and  _434
REMARK  190  A    between atoms: _440  and  _442
REMARK  191  A    between atoms: _442  and  _443
REMARK  192  A    between atoms: _442  and  _445
REMARK  193  A    between atoms: _445  and  _446
REMARK  194  A    between atoms: _451  and  _452
REMARK  195  A    between atoms: _454  and  _456
REMARK  196  A    between atoms: _456  and  _457
REMARK  197  A    between atoms: _456  and  _459
REMARK  198  A    between atoms: _459  and  _460
REMARK  199  A    between atoms: _462  and  _464
REMARK  200  A    between atoms: _464  and  _465
REMARK  201  A    between atoms: _468  and  _470
REMARK  202  A    between atoms: _470  and  _471
REMARK  203  A    between atoms: _470  and  _473
REMARK  204  A    between atoms: _473  and  _474
REMARK  205  A    between atoms: _479  and  _480
REMARK  206  A    between atoms: _482  and  _484
REMARK  207  A    between atoms: _484  and  _485
REMARK  208  A    between atoms: _484  and  _487
REMARK  209  A    between atoms: _490  and  _492
REMARK  210  A    between atoms: _492  and  _493
REMARK  211  A    between atoms: _492  and  _495
REMARK  212  A    between atoms: _495  and  _496
REMARK  213  A    between atoms: _499  and  _501
REMARK  214  A    between atoms: _501  and  _502
REMARK  215  A    between atoms: _501  and  _504
REMARK  216  A    between atoms: _507  and  _509
REMARK  217  A    between atoms: _509  and  _510
REMARK  218  A    between atoms: _509  and  _512
REMARK  219  A    between atoms: _512  and  _513
REMARK  220  A    between atoms: _516  and  _518
REMARK  221  A    between atoms: _518  and  _519
REMARK  222  A    between atoms: _518  and  _521
REMARK  223  A    between atoms: _521  and  _522
REMARK  224  A    between atoms: _525  and  _527
REMARK  225  A    between atoms: _527  and  _528
REMARK  226  A    between atoms: _527  and  _530
REMARK  227  A    between atoms: _530  and  _531
REMARK  228  A    between atoms: _531  and  _532
REMARK  229  A    between atoms: _532  and  _533
REMARK  230  A    between atoms: _533  and  _534
REMARK  231  A    between atoms: _538  and  _540
REMARK  232  A    between atoms: _540  and  _541
REMARK  233  A    between atoms: _540  and  _543
REMARK  234  A    between atoms: _543  and  _544
REMARK  235  A    between atoms: _549  and  _551
REMARK  236  A    between atoms: _551  and  _552
REMARK  237  A    between atoms: _555  and  _557
REMARK  238  A    between atoms: _557  and  _558
REMARK  239  A    between atoms: _557  and  _560
REMARK  240  A    between atoms: _560  and  _561
REMARK  241  A    between atoms: _571  and  _573
REMARK  242  A    between atoms: _573  and  _574
REMARK  243  A    between atoms: _573  and  _576
REMARK  244  A    between atoms: _576  and  _577
REMARK  245  A    between atoms: _577  and  _578
REMARK  246  A    between atoms: _581  and  _583
REMARK  247  A    between atoms: _583  and  _584
REMARK  248  A    between atoms: _583  and  _586
REMARK  249  A    between atoms: _586  and  _587
REMARK  250  A    between atoms: _589  and  _591
REMARK  251  A    between atoms: _591  and  _592
REMARK  252  A    between atoms: _591  and  _594
REMARK  253  A    between atoms: _594  and  _595
REMARK  254  A    between atoms: _601  and  _603
REMARK  255  A    between atoms: _603  and  _604
REMARK  256  A    between atoms: _603  and  _606
REMARK  257  A    between atoms: _606  and  _607
REMARK  258  A    between atoms: _610  and  _612
REMARK  259  A    between atoms: _612  and  _613
REMARK  260  A    between atoms: _612  and  _615
REMARK  261  A    between atoms: _618  and  _620
REMARK  262  A    between atoms: _620  and  _621
REMARK  263  A    between atoms: _620  and  _623
REMARK  264  A    between atoms: _623  and  _624
REMARK  265  A    between atoms: _624  and  _625
REMARK  266  A    between atoms: _627  and  _629
REMARK  267  A    between atoms: _629  and  _630
REMARK  268  A    between atoms: _632  and  _634
REMARK  269  A    between atoms: _634  and  _635
REMARK  270  A    between atoms: _634  and  _637
REMARK  271  A    between atoms: _637  and  _638
REMARK  272  A    between atoms: _641  and  _643
REMARK  273  A    between atoms: _643  and  _644
REMARK  274  A    between atoms: _643  and  _646
REMARK  275  A    between atoms: _646  and  _647
REMARK  276  A    between atoms: _647  and  _648
REMARK  277  A    between atoms: _648  and  _649
REMARK  278  A    between atoms: _649  and  _650
REMARK  279  A    between atoms: _654  and  _656
REMARK  280  A    between atoms: _656  and  _657
REMARK  281  A    between atoms: _656  and  _659
REMARK                            x       y       z     vdW  Elec       q    Type
REMARK                         _______ _______ _______ _____ _____    ______ ____
ROOT
ATOM      1  CA  TRP A   2       4.841  20.824  28.764  0.00  0.00    +0.153 C 
ENDROOT
BRANCH   1   4
ATOM      2  C   ALA A   1       3.299  21.810  30.412  0.00  0.00    +0.238 C 
ATOM      3  O   ALA A   1       4.200  22.338  31.064  0.00  0.00    -0.274 OA
ATOM      4  N   TRP A   2       3.516  21.052  29.339  0.00  0.00    -0.297 N 
ATOM      5  H   TRP A   2       2.698  20.597  28.885  0.00  0.00    +0.150 HD
BRANCH   2   6
ATOM      6  CA  ALA A   1       1.844  21.962  30.839  0.00  0.00    +0.145 C 
ATOM      7  CB  ALA A   1       1.425  23.435  30.755  0.00  0.00    +0.028 C 
BRANCH   6   8
ATOM      8  N   ALA A   1       1.725  21.465  32.211  0.00  0.00    -0.238 NA
ATOM      9  H   ALA A   1       2.361  21.847  32.940  0.00  0.00    +0.142 HD
ENDBRANCH   6   8
ENDBRANCH   2   6
ENDBRANCH   1   4
BRANCH   1  10
ATOM     10  C   TRP A   2       4.815  21.618  27.470  0.00  0.00    +0.241 C 
ATOM     11  N   GLU A   3       5.926  22.238  27.104  0.00  0.00    -0.297 N 
ATOM     12  H   GLU A   3       6.785  22.163  27.686  0.00  0.00    +0.150 HD
ATOM     13  O   TRP A   2       3.798  21.653  26.795  0.00  0.00    -0.273 OA
BRANCH  11  14
ATOM     14  CA  GLU A   3       5.935  23.024  25.881  0.00  0.00    +0.149 C 
BRANCH  14  15
ATOM     15  C   GLU A   3       7.320  23.163  25.276  0.00  0.00    +0.241 C 
ATOM     16  O   GLU A   3       8.316  23.248  25.987  0.00  0.00    -0.273 OA
ATOM     17  N   SER A   4       7.376  23.159  23.948  0.00  0.00    -0.296 N 
ATOM     18  H   SER A   4       6.498  23.055  23.400  0.00  0.00    +0.150 HD
BRANCH  17  19
ATOM     19  CA  SER A   4       8.650  23.298  23.244  0.00  0.00    +0.166 C 
BRANCH  19  20
ATOM     20  C   SER A   4       8.505  23.771  21.805  0.00  0.00    +0.229 C 
ATOM     21  O   SER A   4       7.611  23.344  21.076  0.00  0.00    -0.286 OA
ENDBRANCH  19  20
BRANCH  19  22
ATOM     22  CB  SER A   4       9.426  21.971  23.250  0.00  0.00    +0.165 C 
BRANCH  22  23
ATOM     23  OG  SER A   4      10.654  22.129  22.571  0.00  0.00    -0.380 OA
ATOM     24  H   SER A   4      11.193  22.825  23.024  0.00  0.00    +0.211 HD
ENDBRANCH  22  23
ENDBRANCH  19  22
ENDBRANCH  17  19
ENDBRANCH  14  15
BRANCH  14  25
ATOM     25  CB  GLU A   3       5.336  24.401  26.180  0.00  0.00    +0.041 C 
BRANCH  25  26
ATOM     26  CG  GLU A   3       5.294  25.372  25.025  0.00  0.00    +0.116 C 
BRANCH  26  27
ATOM     27  CD  GLU A   3       4.512  26.625  25.374  0.00  0.00    +0.365 C 
ATOM     28  OE2 GLU A   3       5.134  27.582  25.885  0.00  0.00    -0.246 OA
ATOM     29  OE1 GLU A   3       3.283  26.653  25.156  0.00  0.00    -0.246 OA
ENDBRANCH  26  27
ENDBRANCH  25  26
ENDBRANCH  14  25
ENDBRANCH  11  14
ENDBRANCH   1  10
BRANCH   1  30
ATOM     30  CB  TRP A   2       5.026  19.337  28.445  0.00  0.00    +0.057 C 
BRANCH  30  31
ATOM     31  CG  TRP A   2       6.307  18.978  27.724  0.00  0.00    -0.002 A 
ATOM     32  CD1 TRP A   2       7.447  18.478  28.285  0.00  0.00    +0.068 A 
ATOM     33  NE1 TRP A   2       8.377  18.203  27.309  0.00  0.00    -0.352 N 
ATOM     34  HE1 TRP A   2       9.328  17.814  27.472  0.00  0.00    +0.166 HD
ATOM     35  CE2 TRP A   2       7.847  18.525  26.087  0.00  0.00    +0.056 A 
ATOM     36  CZ2 TRP A   2       8.407  18.430  24.812  0.00  0.00    +0.017 A 
ATOM     37  CH2 TRP A   2       7.641  18.830  23.749  0.00  0.00    +0.001 A 
ATOM     38  CZ3 TRP A   2       6.343  19.337  23.932  0.00  0.00    +0.000 A 
ATOM     39  CE3 TRP A   2       5.784  19.431  25.205  0.00  0.00    +0.001 A 
ATOM     40  CD2 TRP A   2       6.547  19.029  26.307  0.00  0.00    +0.013 A 
ENDBRANCH  30  31
ENDBRANCH   1  30
TORSDOF 15
REMARK  Name = ../refined-set-2016/2yki/2yki_pocket.pdb
REMARK  281 active torsions:
REMARK  status: ('A' for Active; 'I' for Inactive)
REMARK    1  A    between atoms: _1  and  _3
REMARK    2  A    between atoms: _3  and  _4
REMARK    3  A    between atoms: _3  and  _6
REMARK    4  A    between atoms: _6  and  _7
REMARK    5  A    between atoms: _13  and  _15
REMARK    6  A    between atoms: _15  and  _16
REMARK    7  A    between atoms: _19  and  _21
REMARK    8  A    between atoms: _21  and  _22
REMARK    9  A    between atoms: _21  and  _24
REMARK   10  A    between atoms: _24  and  _25
REMARK   11  A    between atoms: _31  and  _33
REMARK   12  A    between atoms: _33  and  _34
REMARK   13  A    between atoms: _33  and  _36
REMARK   14  A    between atoms: _36  and  _37
REMARK   15  A    between atoms: _37  and  _38
REMARK   16  A    between atoms: _43  and  _45
REMARK   17  A    between atoms: _45  and  _46
REMARK   18  A    between atoms: _45  and  _48
REMARK   19  A    between atoms: _48  and  _49
REMARK   20  A    between atoms: _52  and  _54
REMARK   21  A    between atoms: _54  and  _55
REMARK   22  A    between atoms: _58  and  _60
REMARK   23  A    between atoms: _60  and  _61
REMARK   24  A    between atoms: _60  and  _63
REMARK   25  A    between atoms: _63  and  _64
REMARK   26  A    between atoms: _67  and  _69
REMARK   27  A    between atoms: _69  and  _70
REMARK   28  A    between atoms: _69  and  _72
REMARK   29  A    between atoms: _72  and  _73
REMARK   30  A    between atoms: _73  and  _74
REMARK   31  A    between atoms: _76  and  _78
REMARK   32  A    between atoms: _78  and  _79
REMARK   33  A    between atoms: _78  and  _81
REMARK   34  A    between atoms: _81  and  _82
REMARK   35  A    between atoms: _82  and  _83
REMARK   36  A    between atoms: _86  and  _88
REMARK   37  A    between atoms: _88  and  _89
REMARK   38  A    between atoms: _88  and  _91
REMARK   39  A    between atoms: _91  and  _92
REMARK   40  A    between atoms: _95  and  _97
REMARK   41  A    between atoms: _97  and  _98
REMARK   42  A    between atoms: _97  and  _100
REMARK   43  A    between atoms: _100  and  _101
REMARK   44  A    between atoms: _104  and  _106
REMARK   45  A    between atoms: _106  and  _107
REMARK   46  A    between atoms: _106  and  _109
REMARK   47  A    between atoms: _109  and  _110
REMARK   48  A    between atoms: _112  and  _114
REMARK   49  A    between atoms: _114  and  _115
REMARK   50  A    between atoms: _114  and  _117
REMARK   51  A    between atoms: _117  and  _118
REMARK   52  A    between atoms: _123  and  _125
REMARK   53  A    between atoms: _125  and  _126
REMARK   54  A    between atoms: _125  and  _128
REMARK   55  A    between atoms: _128  and  _129
REMARK   56  A    between atoms: _131  and  _133
REMARK   57  A    between atoms: _133  and  _134
REMARK   58  A    between atoms: _133  and  _136
REMARK   59  A    between atoms: _136  and  _137
REMARK   60  A    between atoms: _139  and  _141
REMARK   61  A    between atoms: _141  and  _142
REMARK   62  A    between atoms: _141  and  _144
REMARK   63  A    between atoms: _144  and  _145
REMARK   64  A    between atoms: _148  and  _150
REMARK   65  A    between atoms: _150  and  _151
REMARK   66  A    between atoms: _154  and  _156
REMARK   67  A    between atoms: _156  and  _157
REMARK   68  A    between atoms: _156  and  _159
REMARK   69  A    between atoms: _159  and  _160
REMARK   70  A    between atoms: _163  and  _165
REMARK   71  A    between atoms: _165  and  _166
REMARK   72  A    between atoms: _165  and  _168
REMARK   73  A    between atoms: _168  and  _169
REMARK   74  A    between atoms: _169  and  _170
REMARK   75  A    between atoms: _170  and  _171
REMARK   76  A    between atoms: _171  and  _172
REMARK   77  A    between atoms: _176  and  _178
REMARK   78  A    between atoms: _178  and  _179
REMARK   79  A    between atoms: _178  and  _181
REMARK   80  A    between atoms: _181  and  _182
REMARK   81  A    between atoms: _185  and  _187
REMARK   82  A    between atoms: _187  and  _188
REMARK   83  A    between atoms: _187  and  _190
REMARK   84  A    between atoms: _190  and  _191
REMARK   85  A    between atoms: _194  and  _196
REMARK   86  A    between atoms: _196  and  _197
REMARK   87  A    between atoms: _196  and  _199
REMARK   88  A    between atoms: _202  and  _204
REMARK   89  A    between atoms: _204  and  _205
REMARK   90  A    between atoms: _204  and  _207
REMARK   91  A    between atoms: _207  and  _208
REMARK   92  A    between atoms: _211  and  _213
REMARK   93  A    between atoms: _213  and  _214
REMARK   94  A    between atoms: _213  and  _216
REMARK   95  A    between atoms: _216  and  _217
REMARK   96  A    between atoms: _220  and  _222
REMARK   97  A    between atoms: _222  and  _223
REMARK   98  A    between atoms: _225  and  _227
REMARK   99  A    between atoms: _227  and  _228
REMARK  100  A    between atoms: _227  and  _230
REMARK  101  A    between atoms: _230  and  _231
REMARK  102  A    between atoms: _234  and  _236
REMARK  103  A    between atoms: _236  and  _237
REMARK  104  A    between atoms: _239  and  _241
REMARK  105  A    between atoms: _241  and  _242
REMARK  106  A    between atoms: _241  and  _244
REMARK  107  A    between atoms: _244  and  _245
REMARK  108  A    between atoms: _245  and  _246
REMARK  109  A    between atoms: _248  and  _250
REMARK  110  A    between atoms: _250  and  _251
REMARK  111  A    between atoms: _250  and  _253
REMARK  112  A    between atoms: _253  and  _254
REMARK  113  A    between atoms: _257  and  _259
REMARK  114  A    between atoms: _259  and  _260
REMARK  115  A    between atoms: _259  and  _262
REMARK  116  A    between atoms: _262  and  _263
REMARK  117  A    between atoms: _263  and  _264
REMARK  118  A    between atoms: _264  and  _265
REMARK  119  A    between atoms: _265  and  _266
REMARK  120  A    between atoms: _270  and  _272
REMARK  121  A    between atoms: _272  and  _273
REMARK  122  A    between atoms: _276  and  _278
REMARK  123  A    between atoms: _278  and  _279
REMARK  124  A    between atoms: _278  and  _281
REMARK  125  A    between atoms: _281  and  _282
REMARK  126  A    between atoms: _285  and  _287
REMARK  127  A    between atoms: _287  and  _288
REMARK  128  A    between atoms: _287  and  _290
REMARK  129  A    between atoms: _290  and  _291
REMARK  130  A    between atoms: _294  and  _296
REMARK  131  A    between atoms: _296  and  _297
REMARK  132  A    between atoms: _296  and  _299
REMARK  133  A    between atoms: _299  and  _300
REMARK  134  A    between atoms: _303  and  _305
REMARK  135  A    between atoms: _305  and  _306
REMARK  136  A    between atoms: _305  and  _308
REMARK  137  A    between atoms: _308  and  _309
REMARK  138  A    between atoms: _314  and  _316
REMARK  139  A    between atoms: _316  and  _317
REMARK  140  A    between atoms: _316  and  _319
REMARK  141  A    between atoms: _319  and  _320
REMARK  142  A    between atoms: _325  and  _327
REMARK  143  A    between atoms: _327  and  _328
REMARK  144  A    between atoms: _327  and  _330
REMARK  145  A    between atoms: _330  and  _331
REMARK  146  A    between atoms: _334  and  _336
REMARK  147  A    between atoms: _336  and  _337
REMARK  148  A    between atoms: _339  and  _341
REMARK  149  A    between atoms: _341  and  _342
REMARK  150  A    between atoms: _341  and  _344
REMARK  151  A    between atoms: _344  and  _345
REMARK  152  A    between atoms: _348  and  _350
REMARK  153  A    between atoms: _350  and  _351
REMARK  154  A    between atoms: _350  and  _353
REMARK  155  A    between atoms: _353  and  _354
REMARK  156  A    between atoms: _357  and  _359
REMARK  157  A    between atoms: _359  and  _360
REMARK  158  A    between atoms: _363  and  _365
REMARK  159  A    between atoms: _365  and  _366
REMARK  160  A    between atoms: _365  and  _368
REMARK  161  A    between atoms: _368  and  _369
REMARK  162  A    between atoms: _369  and  _370
REMARK  163  A    between atoms: _370  and  _371
REMARK  164  A    between atoms: _371  and  _372
REMARK  165  A    between atoms: _376  and  _378
REMARK  166  A    between atoms: _378  and  _379
REMARK  167  A    between atoms: _378  and  _381
REMARK  168  A    between atoms: _381  and  _382
REMARK  169  A    between atoms: _384  and  _386
REMARK  170  A    between atoms: _386  and  _387
REMARK  171  A    between atoms: _389  and  _391
REMARK  172  A    between atoms: _391  and  _392
REMARK  173  A    between atoms: _391  and  _394
REMARK  174  A    between atoms: _394  and  _395
REMARK  175  A    between atoms: _398  and  _400
REMARK  176  A    between atoms: _400  and  _401
REMARK  177  A    between atoms: _400  and  _403
REMARK  178  A    between atoms: _403  and  _404
REMARK  179  A    between atoms: _410  and  _412
REMARK  180  A    between atoms: _412  and  _413
REMARK  181  A    between atoms: _415  and  _417
REMARK  182  A    between atoms: _417  and  _418
REMARK  183  A    between atoms: _417  and  _420
REMARK  184  A    between atoms: _423  and  _425
REMARK  185  A    between atoms: _425  and  _426
REMARK  186  A    between atoms: _428  and  _430
REMARK  187  A    between atoms: _430  and  _431
REMARK  188  A    between atoms: _430  and  _433
REMARK  189  A    between atoms: _433  and  _434
REMARK  190  A    between atoms: _440  and  _442
REMARK  191  A    between atoms: _442  and  _443
REMARK  192  A    between atoms: _442  and  _445
REMARK  193  A    between atoms: _445  and  _446
REMARK  194  A    between atoms: _451  and  _452
REMARK  195  A    between atoms: _454  and  _456
REMARK  196  A    between atoms: _456  and  _457
REMARK  197  A    between atoms: _456  and  _459
REMARK  198  A    between atoms: _459  and  _460
REMARK  199  A    between atoms: _462  and  _464
REMARK  200  A    between atoms: _464  and  _465
REMARK  201  A    between atoms: _468  and  _470
REMARK  202  A    between atoms: _470  and  _471
REMARK  203  A    between atoms: _470  and  _473
REMARK  204  A    between atoms: _473  and  _474
REMARK  205  A    between atoms: _479  and  _480
REMARK  206  A    between atoms: _482  and  _484
REMARK  207  A    between atoms: _484  and  _485
REMARK  208  A    between atoms: _484  and  _487
REMARK  209  A    between atoms: _490  and  _492
REMARK  210  A    between atoms: _492  and  _493
REMARK  211  A    between atoms: _492  and  _495
REMARK  212  A    between atoms: _495  and  _496
REMARK  213  A    between atoms: _499  and  _501
REMARK  214  A    between atoms: _501  and  _502
REMARK  215  A    between atoms: _501  and  _504
REMARK  216  A    between atoms: _507  and  _509
REMARK  217  A    between atoms: _509  and  _510
REMARK  218  A    between atoms: _509  and  _512
REMARK  219  A    between atoms: _512  and  _513
REMARK  220  A    between atoms: _516  and  _518
REMARK  221  A    between atoms: _518  and  _519
REMARK  222  A    between atoms: _518  and  _521
REMARK  223  A    between atoms: _521  and  _522
REMARK  224  A    between atoms: _525  and  _527
REMARK  225  A    between atoms: _527  and  _528
REMARK  226  A    between atoms: _527  and  _530
REMARK  227  A    between atoms: _530  and  _531
REMARK  228  A    between atoms: _531  and  _532
REMARK  229  A    between atoms: _532  and  _533
REMARK  230  A    between atoms: _533  and  _534
REMARK  231  A    between atoms: _538  and  _540
REMARK  232  A    between atoms: _540  and  _541
REMARK  233  A    between atoms: _540  and  _543
REMARK  234  A    between atoms: _543  and  _544
REMARK  235  A    between atoms: _549  and  _551
REMARK  236  A    between atoms: _551  and  _552
REMARK  237  A    between atoms: _555  and  _557
REMARK  238  A    between atoms: _557  and  _558
REMARK  239  A    between atoms: _557  and  _560
REMARK  240  A    between atoms: _560  and  _561
REMARK  241  A    between atoms: _571  and  _573
REMARK  242  A    between atoms: _573  and  _574
REMARK  243  A    between atoms: _573  and  _576
REMARK  244  A    between atoms: _576  and  _577
REMARK  245  A    between atoms: _577  and  _578
REMARK  246  A    between atoms: _581  and  _583
REMARK  247  A    between atoms: _583  and  _584
REMARK  248  A    between atoms: _583  and  _586
REMARK  249  A    between atoms: _586  and  _587
REMARK  250  A    between atoms: _589  and  _591
REMARK  251  A    between atoms: _591  and  _592
REMARK  252  A    between atoms: _591  and  _594
REMARK  253  A    between atoms: _594  and  _595
REMARK  254  A    between atoms: _601  and  _603
REMARK  255  A    between atoms: _603  and  _604
REMARK  256  A    between atoms: _603  and  _606
REMARK  257  A    between atoms: _606  and  _607
REMARK  258  A    between atoms: _610  and  _612
REMARK  259  A    between atoms: _612  and  _613
REMARK  260  A    between atoms: _612  and  _615
REMARK  261  A    between atoms: _618  and  _620
REMARK  262  A    between atoms: _620  and  _621
REMARK  263  A    between atoms: _620  and  _623
REMARK  264  A    between atoms: _623  and  _624
REMARK  265  A    between atoms: _624  and  _625
REMARK  266  A    between atoms: _627  and  _629
REMARK  267  A    between atoms: _629  and  _630
REMARK  268  A    between atoms: _632  and  _634
REMARK  269  A    between atoms: _634  and  _635
REMARK  270  A    between atoms: _634  and  _637
REMARK  271  A    between atoms: _637  and  _638
REMARK  272  A    between atoms: _641  and  _643
REMARK  273  A    between atoms: _643  and  _644
REMARK  274  A    between atoms: _643  and  _646
REMARK  275  A    between atoms: _646  and  _647
REMARK  276  A    between atoms: _647  and  _648
REMARK  277  A    between atoms: _648  and  _649
REMARK  278  A    between atoms: _649  and  _650
REMARK  279  A    between atoms: _654  and  _656
REMARK  280  A    between atoms: _656  and  _657
REMARK  281  A    between atoms: _656  and  _659
REMARK                            x       y       z     vdW  Elec       q    Type
REMARK                         _______ _______ _______ _____ _____    ______ ____
ROOT
ATOM      1  CA  THR A   2       9.506  23.719  29.726  0.00  0.00    +0.176 C 
ENDROOT
BRANCH   1   4
ATOM      2  C   PHE A   1      11.139  22.940  28.121  0.00  0.00    +0.239 C 
ATOM      3  O   PHE A   1      12.050  23.010  28.948  0.00  0.00    -0.274 OA
ATOM      4  N   THR A   2       9.883  23.263  28.400  0.00  0.00    -0.295 N 
ATOM      5  H   THR A   2       9.158  23.189  27.658  0.00  0.00    +0.150 HD
BRANCH   2   6
ATOM      6  CA  PHE A   1      11.414  22.479  26.700  0.00  0.00    +0.149 C 
BRANCH   6   7
ATOM      7  N   PHE A   1      12.846  22.569  26.486  0.00  0.00    -0.238 NA
ATOM      8  H   PHE A   1      13.486  22.359  27.278  0.00  0.00    +0.142 HD
ENDBRANCH   6   7
BRANCH   6   9
ATOM      9  CB  PHE A   1      10.890  21.055  26.500  0.00  0.00    +0.053 C 
BRANCH   9  10
ATOM     10  CG  PHE A   1      11.422  20.041  27.478  0.00  0.00    -0.020 A 
ATOM     11  CD2 PHE A   1      10.749  19.775  28.656  0.00  0.00    -0.004 A 
ATOM     12  CE2 PHE A   1      11.185  18.788  29.526  0.00  0.00    -0.000 A 
ATOM     13  CZ  PHE A   1      12.321  18.055  29.220  0.00  0.00    -0.000 A 
ATOM     14  CE1 PHE A   1      13.011  18.317  28.044  0.00  0.00    -0.000 A 
ATOM     15  CD1 PHE A   1      12.559  19.309  27.185  0.00  0.00    -0.004 A 
ENDBRANCH   9  10
ENDBRANCH   6   9
ENDBRANCH   2   6
ENDBRANCH   1   4
BRANCH   1  16
ATOM     16  C   THR A   2       8.380  22.892  30.325  0.00  0.00    +0.243 C 
ATOM     17  N   VAL A   3       8.319  22.885  31.651  0.00  0.00    -0.298 N 
ATOM     18  H   VAL A   3       9.044  23.396  32.194  0.00  0.00    +0.150 HD
ATOM     19  O   THR A   2       7.596  22.265  29.608  0.00  0.00    -0.273 OA
BRANCH  17  20
ATOM     20  CA  VAL A   3       7.263  22.181  32.365  0.00  0.00    +0.137 C 
BRANCH  20  21
ATOM     21  CB  VAL A   3       7.714  20.807  32.897  0.00  0.00    +0.026 C 
ATOM     22  CG2 VAL A   3       6.613  20.213  33.775  0.00  0.00    +0.002 C 
ATOM     23  CG1 VAL A   3       8.013  19.871  31.739  0.00  0.00    +0.002 C 
ENDBRANCH  20  21
BRANCH  20  24
ATOM     24  C   VAL A   3       6.867  23.042  33.554  0.00  0.00    +0.227 C 
ATOM     25  O   VAL A   3       7.720  23.634  34.220  0.00  0.00    -0.286 OA
ENDBRANCH  20  24
ENDBRANCH  17  20
ENDBRANCH   1  16
BRANCH   1  26
ATOM     26  CB  THR A   2       9.041  25.185  29.693  0.00  0.00    +0.137 C 
ATOM     27  CG2 THR A   2      10.136  26.084  29.139  0.00  0.00    +0.034 C 
BRANCH  26  28
ATOM     28  OG1 THR A   2       7.879  25.290  28.862  0.00  0.00    -0.382 OA
ATOM     29  HG1 THR A   2       7.158  24.720  29.231  0.00  0.00    +0.210 HD
ENDBRANCH  26  28
ENDBRANCH   1  26
TORSDOF 11
REMARK  Name = ../refined-set-2016/2yki/2yki_pocket.pdb
REMARK  281 active torsions:
REMARK  status: ('A' for Active; 'I' for Inactive)
REMARK    1  A    between atoms: _1  and  _3
REMARK    2  A    between atoms: _3  and  _4
REMARK    3  A    between atoms: _3  and  _6
REMARK    4  A    between atoms: _6  and  _7
REMARK    5  A    between atoms: _13  and  _15
REMARK    6  A    between atoms: _15  and  _16
REMARK    7  A    between atoms: _19  and  _21
REMARK    8  A    between atoms: _21  and  _22
REMARK    9  A    between atoms: _21  and  _24
REMARK   10  A    between atoms: _24  and  _25
REMARK   11  A    between atoms: _31  and  _33
REMARK   12  A    between atoms: _33  and  _34
REMARK   13  A    between atoms: _33  and  _36
REMARK   14  A    between atoms: _36  and  _37
REMARK   15  A    between atoms: _37  and  _38
REMARK   16  A    between atoms: _43  and  _45
REMARK   17  A    between atoms: _45  and  _46
REMARK   18  A    between atoms: _45  and  _48
REMARK   19  A    between atoms: _48  and  _49
REMARK   20  A    between atoms: _52  and  _54
REMARK   21  A    between atoms: _54  and  _55
REMARK   22  A    between atoms: _58  and  _60
REMARK   23  A    between atoms: _60  and  _61
REMARK   24  A    between atoms: _60  and  _63
REMARK   25  A    between atoms: _63  and  _64
REMARK   26  A    between atoms: _67  and  _69
REMARK   27  A    between atoms: _69  and  _70
REMARK   28  A    between atoms: _69  and  _72
REMARK   29  A    between atoms: _72  and  _73
REMARK   30  A    between atoms: _73  and  _74
REMARK   31  A    between atoms: _76  and  _78
REMARK   32  A    between atoms: _78  and  _79
REMARK   33  A    between atoms: _78  and  _81
REMARK   34  A    between atoms: _81  and  _82
REMARK   35  A    between atoms: _82  and  _83
REMARK   36  A    between atoms: _86  and  _88
REMARK   37  A    between atoms: _88  and  _89
REMARK   38  A    between atoms: _88  and  _91
REMARK   39  A    between atoms: _91  and  _92
REMARK   40  A    between atoms: _95  and  _97
REMARK   41  A    between atoms: _97  and  _98
REMARK   42  A    between atoms: _97  and  _100
REMARK   43  A    between atoms: _100  and  _101
REMARK   44  A    between atoms: _104  and  _106
REMARK   45  A    between atoms: _106  and  _107
REMARK   46  A    between atoms: _106  and  _109
REMARK   47  A    between atoms: _109  and  _110
REMARK   48  A    between atoms: _112  and  _114
REMARK   49  A    between atoms: _114  and  _115
REMARK   50  A    between atoms: _114  and  _117
REMARK   51  A    between atoms: _117  and  _118
REMARK   52  A    between atoms: _123  and  _125
REMARK   53  A    between atoms: _125  and  _126
REMARK   54  A    between atoms: _125  and  _128
REMARK   55  A    between atoms: _128  and  _129
REMARK   56  A    between atoms: _131  and  _133
REMARK   57  A    between atoms: _133  and  _134
REMARK   58  A    between atoms: _133  and  _136
REMARK   59  A    between atoms: _136  and  _137
REMARK   60  A    between atoms: _139  and  _141
REMARK   61  A    between atoms: _141  and  _142
REMARK   62  A    between atoms: _141  and  _144
REMARK   63  A    between atoms: _144  and  _145
REMARK   64  A    between atoms: _148  and  _150
REMARK   65  A    between atoms: _150  and  _151
REMARK   66  A    between atoms: _154  and  _156
REMARK   67  A    between atoms: _156  and  _157
REMARK   68  A    between atoms: _156  and  _159
REMARK   69  A    between atoms: _159  and  _160
REMARK   70  A    between atoms: _163  and  _165
REMARK   71  A    between atoms: _165  and  _166
REMARK   72  A    between atoms: _165  and  _168
REMARK   73  A    between atoms: _168  and  _169
REMARK   74  A    between atoms: _169  and  _170
REMARK   75  A    between atoms: _170  and  _171
REMARK   76  A    between atoms: _171  and  _172
REMARK   77  A    between atoms: _176  and  _178
REMARK   78  A    between atoms: _178  and  _179
REMARK   79  A    between atoms: _178  and  _181
REMARK   80  A    between atoms: _181  and  _182
REMARK   81  A    between atoms: _185  and  _187
REMARK   82  A    between atoms: _187  and  _188
REMARK   83  A    between atoms: _187  and  _190
REMARK   84  A    between atoms: _190  and  _191
REMARK   85  A    between atoms: _194  and  _196
REMARK   86  A    between atoms: _196  and  _197
REMARK   87  A    between atoms: _196  and  _199
REMARK   88  A    between atoms: _202  and  _204
REMARK   89  A    between atoms: _204  and  _205
REMARK   90  A    between atoms: _204  and  _207
REMARK   91  A    between atoms: _207  and  _208
REMARK   92  A    between atoms: _211  and  _213
REMARK   93  A    between atoms: _213  and  _214
REMARK   94  A    between atoms: _213  and  _216
REMARK   95  A    between atoms: _216  and  _217
REMARK   96  A    between atoms: _220  and  _222
REMARK   97  A    between atoms: _222  and  _223
REMARK   98  A    between atoms: _225  and  _227
REMARK   99  A    between atoms: _227  and  _228
REMARK  100  A    between atoms: _227  and  _230
REMARK  101  A    between atoms: _230  and  _231
REMARK  102  A    between atoms: _234  and  _236
REMARK  103  A    between atoms: _236  and  _237
REMARK  104  A    between atoms: _239  and  _241
REMARK  105  A    between atoms: _241  and  _242
REMARK  106  A    between atoms: _241  and  _244
REMARK  107  A    between atoms: _244  and  _245
REMARK  108  A    between atoms: _245  and  _246
REMARK  109  A    between atoms: _248  and  _250
REMARK  110  A    between atoms: _250  and  _251
REMARK  111  A    between atoms: _250  and  _253
REMARK  112  A    between atoms: _253  and  _254
REMARK  113  A    between atoms: _257  and  _259
REMARK  114  A    between atoms: _259  and  _260
REMARK  115  A    between atoms: _259  and  _262
REMARK  116  A    between atoms: _262  and  _263
REMARK  117  A    between atoms: _263  and  _264
REMARK  118  A    between atoms: _264  and  _265
REMARK  119  A    between atoms: _265  and  _266
REMARK  120  A    between atoms: _270  and  _272
REMARK  121  A    between atoms: _272  and  _273
REMARK  122  A    between atoms: _276  and  _278
REMARK  123  A    between atoms: _278  and  _279
REMARK  124  A    between atoms: _278  and  _281
REMARK  125  A    between atoms: _281  and  _282
REMARK  126  A    between atoms: _285  and  _287
REMARK  127  A    between atoms: _287  and  _288
REMARK  128  A    between atoms: _287  and  _290
REMARK  129  A    between atoms: _290  and  _291
REMARK  130  A    between atoms: _294  and  _296
REMARK  131  A    between atoms: _296  and  _297
REMARK  132  A    between atoms: _296  and  _299
REMARK  133  A    between atoms: _299  and  _300
REMARK  134  A    between atoms: _303  and  _305
REMARK  135  A    between atoms: _305  and  _306
REMARK  136  A    between atoms: _305  and  _308
REMARK  137  A    between atoms: _308  and  _309
REMARK  138  A    between atoms: _314  and  _316
REMARK  139  A    between atoms: _316  and  _317
REMARK  140  A    between atoms: _316  and  _319
REMARK  141  A    between atoms: _319  and  _320
REMARK  142  A    between atoms: _325  and  _327
REMARK  143  A    between atoms: _327  and  _328
REMARK  144  A    between atoms: _327  and  _330
REMARK  145  A    between atoms: _330  and  _331
REMARK  146  A    between atoms: _334  and  _336
REMARK  147  A    between atoms: _336  and  _337
REMARK  148  A    between atoms: _339  and  _341
REMARK  149  A    between atoms: _341  and  _342
REMARK  150  A    between atoms: _341  and  _344
REMARK  151  A    between atoms: _344  and  _345
REMARK  152  A    between atoms: _348  and  _350
REMARK  153  A    between atoms: _350  and  _351
REMARK  154  A    between atoms: _350  and  _353
REMARK  155  A    between atoms: _353  and  _354
REMARK  156  A    between atoms: _357  and  _359
REMARK  157  A    between atoms: _359  and  _360
REMARK  158  A    between atoms: _363  and  _365
REMARK  159  A    between atoms: _365  and  _366
REMARK  160  A    between atoms: _365  and  _368
REMARK  161  A    between atoms: _368  and  _369
REMARK  162  A    between atoms: _369  and  _370
REMARK  163  A    between atoms: _370  and  _371
REMARK  164  A    between atoms: _371  and  _372
REMARK  165  A    between atoms: _376  and  _378
REMARK  166  A    between atoms: _378  and  _379
REMARK  167  A    between atoms: _378  and  _381
REMARK  168  A    between atoms: _381  and  _382
REMARK  169  A    between atoms: _384  and  _386
REMARK  170  A    between atoms: _386  and  _387
REMARK  171  A    between atoms: _389  and  _391
REMARK  172  A    between atoms: _391  and  _392
REMARK  173  A    between atoms: _391  and  _394
REMARK  174  A    between atoms: _394  and  _395
REMARK  175  A    between atoms: _398  and  _400
REMARK  176  A    between atoms: _400  and  _401
REMARK  177  A    between atoms: _400  and  _403
REMARK  178  A    between atoms: _403  and  _404
REMARK  179  A    between atoms: _410  and  _412
REMARK  180  A    between atoms: _412  and  _413
REMARK  181  A    between atoms: _415  and  _417
REMARK  182  A    between atoms: _417  and  _418
REMARK  183  A    between atoms: _417  and  _420
REMARK  184  A    between atoms: _423  and  _425
REMARK  185  A    between atoms: _425  and  _426
REMARK  186  A    between atoms: _428  and  _430
REMARK  187  A    between atoms: _430  and  _431
REMARK  188  A    between atoms: _430  and  _433
REMARK  189  A    between atoms: _433  and  _434
REMARK  190  A    between atoms: _440  and  _442
REMARK  191  A    between atoms: _442  and  _443
REMARK  192  A    between atoms: _442  and  _445
REMARK  193  A    between atoms: _445  and  _446
REMARK  194  A    between atoms: _451  and  _452
REMARK  195  A    between atoms: _454  and  _456
REMARK  196  A    between atoms: _456  and  _457
REMARK  197  A    between atoms: _456  and  _459
REMARK  198  A    between atoms: _459  and  _460
REMARK  199  A    between atoms: _462  and  _464
REMARK  200  A    between atoms: _464  and  _465
REMARK  201  A    between atoms: _468  and  _470
REMARK  202  A    between atoms: _470  and  _471
REMARK  203  A    between atoms: _470  and  _473
REMARK  204  A    between atoms: _473  and  _474
REMARK  205  A    between atoms: _479  and  _480
REMARK  206  A    between atoms: _482  and  _484
REMARK  207  A    between atoms: _484  and  _485
REMARK  208  A    between atoms: _484  and  _487
REMARK  209  A    between atoms: _490  and  _492
REMARK  210  A    between atoms: _492  and  _493
REMARK  211  A    between atoms: _492  and  _495
REMARK  212  A    between atoms: _495  and  _496
REMARK  213  A    between atoms: _499  and  _501
REMARK  214  A    between atoms: _501  and  _502
REMARK  215  A    between atoms: _501  and  _504
REMARK  216  A    between atoms: _507  and  _509
REMARK  217  A    between atoms: _509  and  _510
REMARK  218  A    between atoms: _509  and  _512
REMARK  219  A    between atoms: _512  and  _513
REMARK  220  A    between atoms: _516  and  _518
REMARK  221  A    between atoms: _518  and  _519
REMARK  222  A    between atoms: _518  and  _521
REMARK  223  A    between atoms: _521  and  _522
REMARK  224  A    between atoms: _525  and  _527
REMARK  225  A    between atoms: _527  and  _528
REMARK  226  A    between atoms: _527  and  _530
REMARK  227  A    between atoms: _530  and  _531
REMARK  228  A    between atoms: _531  and  _532
REMARK  229  A    between atoms: _532  and  _533
REMARK  230  A    between atoms: _533  and  _534
REMARK  231  A    between atoms: _538  and  _540
REMARK  232  A    between atoms: _540  and  _541
REMARK  233  A    between atoms: _540  and  _543
REMARK  234  A    between atoms: _543  and  _544
REMARK  235  A    between atoms: _549  and  _551
REMARK  236  A    between atoms: _551  and  _552
REMARK  237  A    between atoms: _555  and  _557
REMARK  238  A    between atoms: _557  and  _558
REMARK  239  A    between atoms: _557  and  _560
REMARK  240  A    between atoms: _560  and  _561
REMARK  241  A    between atoms: _571  and  _573
REMARK  242  A    between atoms: _573  and  _574
REMARK  243  A    between atoms: _573  and  _576
REMARK  244  A    between atoms: _576  and  _577
REMARK  245  A    between atoms: _577  and  _578
REMARK  246  A    between atoms: _581  and  _583
REMARK  247  A    between atoms: _583  and  _584
REMARK  248  A    between atoms: _583  and  _586
REMARK  249  A    between atoms: _586  and  _587
REMARK  250  A    between atoms: _589  and  _591
REMARK  251  A    between atoms: _591  and  _592
REMARK  252  A    between atoms: _591  and  _594
REMARK  253  A    between atoms: _594  and  _595
REMARK  254  A    between atoms: _601  and  _603
REMARK  255  A    between atoms: _603  and  _604
REMARK  256  A    between atoms: _603  and  _606
REMARK  257  A    between atoms: _606  and  _607
REMARK  258  A    between atoms: _610  and  _612
REMARK  259  A    between atoms: _612  and  _613
REMARK  260  A    between atoms: _612  and  _615
REMARK  261  A    between atoms: _618  and  _620
REMARK  262  A    between atoms: _620  and  _621
REMARK  263  A    between atoms: _620  and  _623
REMARK  264  A    between atoms: _623  and  _624
REMARK  265  A    between atoms: _624  and  _625
REMARK  266  A    between atoms: _627  and  _629
REMARK  267  A    between atoms: _629  and  _630
REMARK  268  A    between atoms: _632  and  _634
REMARK  269  A    between atoms: _634  and  _635
REMARK  270  A    between atoms: _634  and  _637
REMARK  271  A    between atoms: _637  and  _638
REMARK  272  A    between atoms: _641  and  _643
REMARK  273  A    between atoms: _643  and  _644
REMARK  274  A    between atoms: _643  and  _646
REMARK  275  A    between atoms: _646  and  _647
REMARK  276  A    between atoms: _647  and  _648
REMARK  277  A    between atoms: _648  and  _649
REMARK  278  A    between atoms: _649  and  _650
REMARK  279  A    between atoms: _654  and  _656
REMARK  280  A    between atoms: _656  and  _657
REMARK  281  A    between atoms: _656  and  _659
REMARK                            x       y       z     vdW  Elec       q    Type
REMARK                         _______ _______ _______ _____ _____    ______ ____
ROOT
ATOM      1  CA  MET A   1      -9.345  18.609  32.678  0.00  0.00    +0.134 C 
ENDROOT
BRANCH   1   2
ATOM      2  N   MET A   1      -8.963  19.639  33.644  0.00  0.00    -0.239 NA
ATOM      3  H   MET A   1      -7.999  19.627  34.034  0.00  0.00    +0.142 HD
ENDBRANCH   1   2
BRANCH   1   4
ATOM      4  C   MET A   1      -9.931  17.315  33.232  0.00  0.00    +0.224 C 
ATOM      5  O   MET A   1     -10.552  16.551  32.489  0.00  0.00    -0.287 OA
ENDBRANCH   1   4
BRANCH   1   6
ATOM      6  CB  MET A   1      -8.140  18.246  31.815  0.00  0.00    +0.037 C 
BRANCH   6   7
ATOM      7  CG  MET A   1      -7.654  19.355  30.912  0.00  0.00    +0.059 C 
BRANCH   7   8
ATOM      8  SD  MET A   1      -5.992  19.015  30.299  0.00  0.00    -0.139 S 
ATOM      9  CE  MET A   1      -6.222  17.390  29.581  0.00  0.00    +0.069 C 
ENDBRANCH   7   8
ENDBRANCH   6   7
ENDBRANCH   1   6
TORSDOF 5
REMARK  Name = ../refined-set-2016/2yki/2yki_pocket.pdb
REMARK  281 active torsions:
REMARK  status: ('A' for Active; 'I' for Inactive)
REMARK    1  A    between atoms: _1  and  _3
REMARK    2  A    between atoms: _3  and  _4
REMARK    3  A    between atoms: _3  and  _6
REMARK    4  A    between atoms: _6  and  _7
REMARK    5  A    between atoms: _13  and  _15
REMARK    6  A    between atoms: _15  and  _16
REMARK    7  A    between atoms: _19  and  _21
REMARK    8  A    between atoms: _21  and  _22
REMARK    9  A    between atoms: _21  and  _24
REMARK   10  A    between atoms: _24  and  _25
REMARK   11  A    between atoms: _31  and  _33
REMARK   12  A    between atoms: _33  and  _34
REMARK   13  A    between atoms: _33  and  _36
REMARK   14  A    between atoms: _36  and  _37
REMARK   15  A    between atoms: _37  and  _38
REMARK   16  A    between atoms: _43  and  _45
REMARK   17  A    between atoms: _45  and  _46
REMARK   18  A    between atoms: _45  and  _48
REMARK   19  A    between atoms: _48  and  _49
REMARK   20  A    between atoms: _52  and  _54
REMARK   21  A    between atoms: _54  and  _55
REMARK   22  A    between atoms: _58  and  _60
REMARK   23  A    between atoms: _60  and  _61
REMARK   24  A    between atoms: _60  and  _63
REMARK   25  A    between atoms: _63  and  _64
REMARK   26  A    between atoms: _67  and  _69
REMARK   27  A    between atoms: _69  and  _70
REMARK   28  A    between atoms: _69  and  _72
REMARK   29  A    between atoms: _72  and  _73
REMARK   30  A    between atoms: _73  and  _74
REMARK   31  A    between atoms: _76  and  _78
REMARK   32  A    between atoms: _78  and  _79
REMARK   33  A    between atoms: _78  and  _81
REMARK   34  A    between atoms: _81  and  _82
REMARK   35  A    between atoms: _82  and  _83
REMARK   36  A    between atoms: _86  and  _88
REMARK   37  A    between atoms: _88  and  _89
REMARK   38  A    between atoms: _88  and  _91
REMARK   39  A    between atoms: _91  and  _92
REMARK   40  A    between atoms: _95  and  _97
REMARK   41  A    between atoms: _97  and  _98
REMARK   42  A    between atoms: _97  and  _100
REMARK   43  A    between atoms: _100  and  _101
REMARK   44  A    between atoms: _104  and  _106
REMARK   45  A    between atoms: _106  and  _107
REMARK   46  A    between atoms: _106  and  _109
REMARK   47  A    between atoms: _109  and  _110
REMARK   48  A    between atoms: _112  and  _114
REMARK   49  A    between atoms: _114  and  _115
REMARK   50  A    between atoms: _114  and  _117
REMARK   51  A    between atoms: _117  and  _118
REMARK   52  A    between atoms: _123  and  _125
REMARK   53  A    between atoms: _125  and  _126
REMARK   54  A    between atoms: _125  and  _128
REMARK   55  A    between atoms: _128  and  _129
REMARK   56  A    between atoms: _131  and  _133
REMARK   57  A    between atoms: _133  and  _134
REMARK   58  A    between atoms: _133  and  _136
REMARK   59  A    between atoms: _136  and  _137
REMARK   60  A    between atoms: _139  and  _141
REMARK   61  A    between atoms: _141  and  _142
REMARK   62  A    between atoms: _141  and  _144
REMARK   63  A    between atoms: _144  and  _145
REMARK   64  A    between atoms: _148  and  _150
REMARK   65  A    between atoms: _150  and  _151
REMARK   66  A    between atoms: _154  and  _156
REMARK   67  A    between atoms: _156  and  _157
REMARK   68  A    between atoms: _156  and  _159
REMARK   69  A    between atoms: _159  and  _160
REMARK   70  A    between atoms: _163  and  _165
REMARK   71  A    between atoms: _165  and  _166
REMARK   72  A    between atoms: _165  and  _168
REMARK   73  A    between atoms: _168  and  _169
REMARK   74  A    between atoms: _169  and  _170
REMARK   75  A    between atoms: _170  and  _171
REMARK   76  A    between atoms: _171  and  _172
REMARK   77  A    between atoms: _176  and  _178
REMARK   78  A    between atoms: _178  and  _179
REMARK   79  A    between atoms: _178  and  _181
REMARK   80  A    between atoms: _181  and  _182
REMARK   81  A    between atoms: _185  and  _187
REMARK   82  A    between atoms: _187  and  _188
REMARK   83  A    between atoms: _187  and  _190
REMARK   84  A    between atoms: _190  and  _191
REMARK   85  A    between atoms: _194  and  _196
REMARK   86  A    between atoms: _196  and  _197
REMARK   87  A    between atoms: _196  and  _199
REMARK   88  A    between atoms: _202  and  _204
REMARK   89  A    between atoms: _204  and  _205
REMARK   90  A    between atoms: _204  and  _207
REMARK   91  A    between atoms: _207  and  _208
REMARK   92  A    between atoms: _211  and  _213
REMARK   93  A    between atoms: _213  and  _214
REMARK   94  A    between atoms: _213  and  _216
REMARK   95  A    between atoms: _216  and  _217
REMARK   96  A    between atoms: _220  and  _222
REMARK   97  A    between atoms: _222  and  _223
REMARK   98  A    between atoms: _225  and  _227
REMARK   99  A    between atoms: _227  and  _228
REMARK  100  A    between atoms: _227  and  _230
REMARK  101  A    between atoms: _230  and  _231
REMARK  102  A    between atoms: _234  and  _236
REMARK  103  A    between atoms: _236  and  _237
REMARK  104  A    between atoms: _239  and  _241
REMARK  105  A    between atoms: _241  and  _242
REMARK  106  A    between atoms: _241  and  _244
REMARK  107  A    between atoms: _244  and  _245
REMARK  108  A    between atoms: _245  and  _246
REMARK  109  A    between atoms: _248  and  _250
REMARK  110  A    between atoms: _250  and  _251
REMARK  111  A    between atoms: _250  and  _253
REMARK  112  A    between atoms: _253  and  _254
REMARK  113  A    between atoms: _257  and  _259
REMARK  114  A    between atoms: _259  and  _260
REMARK  115  A    between atoms: _259  and  _262
REMARK  116  A    between atoms: _262  and  _263
REMARK  117  A    between atoms: _263  and  _264
REMARK  118  A    between atoms: _264  and  _265
REMARK  119  A    between atoms: _265  and  _266
REMARK  120  A    between atoms: _270  and  _272
REMARK  121  A    between atoms: _272  and  _273
REMARK  122  A    between atoms: _276  and  _278
REMARK  123  A    between atoms: _278  and  _279
REMARK  124  A    between atoms: _278  and  _281
REMARK  125  A    between atoms: _281  and  _282
REMARK  126  A    between atoms: _285  and  _287
REMARK  127  A    between atoms: _287  and  _288
REMARK  128  A    between atoms: _287  and  _290
REMARK  129  A    between atoms: _290  and  _291
REMARK  130  A    between atoms: _294  and  _296
REMARK  131  A    between atoms: _296  and  _297
REMARK  132  A    between atoms: _296  and  _299
REMARK  133  A    between atoms: _299  and  _300
REMARK  134  A    between atoms: _303  and  _305
REMARK  135  A    between atoms: _305  and  _306
REMARK  136  A    between atoms: _305  and  _308
REMARK  137  A    between atoms: _308  and  _309
REMARK  138  A    between atoms: _314  and  _316
REMARK  139  A    between atoms: _316  and  _317
REMARK  140  A    between atoms: _316  and  _319
REMARK  141  A    between atoms: _319  and  _320
REMARK  142  A    between atoms: _325  and  _327
REMARK  143  A    between atoms: _327  and  _328
REMARK  144  A    between atoms: _327  and  _330
REMARK  145  A    between atoms: _330  and  _331
REMARK  146  A    between atoms: _334  and  _336
REMARK  147  A    between atoms: _336  and  _337
REMARK  148  A    between atoms: _339  and  _341
REMARK  149  A    between atoms: _341  and  _342
REMARK  150  A    between atoms: _341  and  _344
REMARK  151  A    between atoms: _344  and  _345
REMARK  152  A    between atoms: _348  and  _350
REMARK  153  A    between atoms: _350  and  _351
REMARK  154  A    between atoms: _350  and  _353
REMARK  155  A    between atoms: _353  and  _354
REMARK  156  A    between atoms: _357  and  _359
REMARK  157  A    between atoms: _359  and  _360
REMARK  158  A    between atoms: _363  and  _365
REMARK  159  A    between atoms: _365  and  _366
REMARK  160  A    between atoms: _365  and  _368
REMARK  161  A    between atoms: _368  and  _369
REMARK  162  A    between atoms: _369  and  _370
REMARK  163  A    between atoms: _370  and  _371
REMARK  164  A    between atoms: _371  and  _372
REMARK  165  A    between atoms: _376  and  _378
REMARK  166  A    between atoms: _378  and  _379
REMARK  167  A    between atoms: _378  and  _381
REMARK  168  A    between atoms: _381  and  _382
REMARK  169  A    between atoms: _384  and  _386
REMARK  170  A    between atoms: _386  and  _387
REMARK  171  A    between atoms: _389  and  _391
REMARK  172  A    between atoms: _391  and  _392
REMARK  173  A    between atoms: _391  and  _394
REMARK  174  A    between atoms: _394  and  _395
REMARK  175  A    between atoms: _398  and  _400
REMARK  176  A    between atoms: _400  and  _401
REMARK  177  A    between atoms: _400  and  _403
REMARK  178  A    between atoms: _403  and  _404
REMARK  179  A    between atoms: _410  and  _412
REMARK  180  A    between atoms: _412  and  _413
REMARK  181  A    between atoms: _415  and  _417
REMARK  182  A    between atoms: _417  and  _418
REMARK  183  A    between atoms: _417  and  _420
REMARK  184  A    between atoms: _423  and  _425
REMARK  185  A    between atoms: _425  and  _426
REMARK  186  A    between atoms: _428  and  _430
REMARK  187  A    between atoms: _430  and  _431
REMARK  188  A    between atoms: _430  and  _433
REMARK  189  A    between atoms: _433  and  _434
REMARK  190  A    between atoms: _440  and  _442
REMARK  191  A    between atoms: _442  and  _443
REMARK  192  A    between atoms: _442  and  _445
REMARK  193  A    between atoms: _445  and  _446
REMARK  194  A    between atoms: _451  and  _452
REMARK  195  A    between atoms: _454  and  _456
REMARK  196  A    between atoms: _456  and  _457
REMARK  197  A    between atoms: _456  and  _459
REMARK  198  A    between atoms: _459  and  _460
REMARK  199  A    between atoms: _462  and  _464
REMARK  200  A    between atoms: _464  and  _465
REMARK  201  A    between atoms: _468  and  _470
REMARK  202  A    between atoms: _470  and  _471
REMARK  203  A    between atoms: _470  and  _473
REMARK  204  A    between atoms: _473  and  _474
REMARK  205  A    between atoms: _479  and  _480
REMARK  206  A    between atoms: _482  and  _484
REMARK  207  A    between atoms: _484  and  _485
REMARK  208  A    between atoms: _484  and  _487
REMARK  209  A    between atoms: _490  and  _492
REMARK  210  A    between atoms: _492  and  _493
REMARK  211  A    between atoms: _492  and  _495
REMARK  212  A    between atoms: _495  and  _496
REMARK  213  A    between atoms: _499  and  _501
REMARK  214  A    between atoms: _501  and  _502
REMARK  215  A    between atoms: _501  and  _504
REMARK  216  A    between atoms: _507  and  _509
REMARK  217  A    between atoms: _509  and  _510
REMARK  218  A    between atoms: _509  and  _512
REMARK  219  A    between atoms: _512  and  _513
REMARK  220  A    between atoms: _516  and  _518
REMARK  221  A    between atoms: _518  and  _519
REMARK  222  A    between atoms: _518  and  _521
REMARK  223  A    between atoms: _521  and  _522
REMARK  224  A    between atoms: _525  and  _527
REMARK  225  A    between atoms: _527  and  _528
REMARK  226  A    between atoms: _527  and  _530
REMARK  227  A    between atoms: _530  and  _531
REMARK  228  A    between atoms: _531  and  _532
REMARK  229  A    between atoms: _532  and  _533
REMARK  230  A    between atoms: _533  and  _534
REMARK  231  A    between atoms: _538  and  _540
REMARK  232  A    between atoms: _540  and  _541
REMARK  233  A    between atoms: _540  and  _543
REMARK  234  A    between atoms: _543  and  _544
REMARK  235  A    between atoms: _549  and  _551
REMARK  236  A    between atoms: _551  and  _552
REMARK  237  A    between atoms: _555  and  _557
REMARK  238  A    between atoms: _557  and  _558
REMARK  239  A    between atoms: _557  and  _560
REMARK  240  A    between atoms: _560  and  _561
REMARK  241  A    between atoms: _571  and  _573
REMARK  242  A    between atoms: _573  and  _574
REMARK  243  A    between atoms: _573  and  _576
REMARK  244  A    between atoms: _576  and  _577
REMARK  245  A    between atoms: _577  and  _578
REMARK  246  A    between atoms: _581  and  _583
REMARK  247  A    between atoms: _583  and  _584
REMARK  248  A    between atoms: _583  and  _586
REMARK  249  A    between atoms: _586  and  _587
REMARK  250  A    between atoms: _589  and  _591
REMARK  251  A    between atoms: _591  and  _592
REMARK  252  A    between atoms: _591  and  _594
REMARK  253  A    between atoms: _594  and  _595
REMARK  254  A    between atoms: _601  and  _603
REMARK  255  A    between atoms: _603  and  _604
REMARK  256  A    between atoms: _603  and  _606
REMARK  257  A    between atoms: _606  and  _607
REMARK  258  A    between atoms: _610  and  _612
REMARK  259  A    between atoms: _612  and  _613
REMARK  260  A    between atoms: _612  and  _615
REMARK  261  A    between atoms: _618  and  _620
REMARK  262  A    between atoms: _620  and  _621
REMARK  263  A    between atoms: _620  and  _623
REMARK  264  A    between atoms: _623  and  _624
REMARK  265  A    between atoms: _624  and  _625
REMARK  266  A    between atoms: _627  and  _629
REMARK  267  A    between atoms: _629  and  _630
REMARK  268  A    between atoms: _632  and  _634
REMARK  269  A    between atoms: _634  and  _635
REMARK  270  A    between atoms: _634  and  _637
REMARK  271  A    between atoms: _637  and  _638
REMARK  272  A    between atoms: _641  and  _643
REMARK  273  A    between atoms: _643  and  _644
REMARK  274  A    between atoms: _643  and  _646
REMARK  275  A    between atoms: _646  and  _647
REMARK  276  A    between atoms: _647  and  _648
REMARK  277  A    between atoms: _648  and  _649
REMARK  278  A    between atoms: _649  and  _650
REMARK  279  A    between atoms: _654  and  _656
REMARK  280  A    between atoms: _656  and  _657
REMARK  281  A    between atoms: _656  and  _659
REMARK                            x       y       z     vdW  Elec       q    Type
REMARK                         _______ _______ _______ _____ _____    ______ ____
ROOT
ATOM      1  CA  LYS A   3      -4.430  18.086  25.219  0.00  0.00    +0.149 C 
ENDROOT
BRANCH   1   3
ATOM      2  C   THR A   2      -4.653  15.940  26.327  0.00  0.00    +0.243 C 
ATOM      3  N   LYS A   3      -4.096  17.141  26.270  0.00  0.00    -0.297 N 
ATOM      4  H   LYS A   3      -3.403  17.414  26.996  0.00  0.00    +0.150 HD
ATOM      5  O   THR A   2      -5.540  15.566  25.558  0.00  0.00    -0.273 OA
BRANCH   2   6
ATOM      6  CA  THR A   2      -4.144  15.058  27.447  0.00  0.00    +0.176 C 
BRANCH   6   9
ATOM      7  C   GLY A   1      -5.250  14.079  29.358  0.00  0.00    +0.240 C 
ATOM      8  O   GLY A   1      -4.471  14.590  30.159  0.00  0.00    -0.274 OA
ATOM      9  N   THR A   2      -5.184  14.264  28.047  0.00  0.00    -0.295 N 
ATOM     10  H   THR A   2      -5.902  13.824  27.436  0.00  0.00    +0.150 HD
BRANCH   7  11
ATOM     11  CA  GLY A   1      -6.378  13.195  29.839  0.00  0.00    +0.169 C 
BRANCH  11  12
ATOM     12  N   GLY A   1      -6.562  13.210  31.278  0.00  0.00    -0.236 NA
ATOM     13  H   GLY A   1      -5.754  13.073  31.919  0.00  0.00    +0.142 HD
ENDBRANCH  11  12
ENDBRANCH   7  11
ENDBRANCH   6   9
BRANCH   6  14
ATOM     14  CB  THR A   2      -3.044  14.146  26.886  0.00  0.00    +0.137 C 
ATOM     15  CG2 THR A   2      -1.947  14.956  26.201  0.00  0.00    +0.034 C 
BRANCH  14  16
ATOM     16  OG1 THR A   2      -2.476  13.381  27.952  0.00  0.00    -0.382 OA
ATOM     17  HG1 THR A   2      -2.088  13.994  28.626  0.00  0.00    +0.210 HD
ENDBRANCH  14  16
ENDBRANCH   6  14
ENDBRANCH   2   6
ENDBRANCH   1   3
BRANCH   1  18
ATOM     18  C   LYS A   3      -3.126  18.383  24.506  0.00  0.00    +0.241 C 
ATOM     19  O   LYS A   3      -2.160  18.789  25.139  0.00  0.00    -0.273 OA
ATOM     20  N   VAL A   4      -3.087  18.152  23.201  0.00  0.00    -0.298 N 
ATOM     21  H   VAL A   4      -3.920  17.748  22.728  0.00  0.00    +0.150 HD
BRANCH  20  22
ATOM     22  CA  VAL A   4      -1.900  18.454  22.421  0.00  0.00    +0.137 C 
BRANCH  22  23
ATOM     23  CB  VAL A   4      -1.497  17.287  21.505  0.00  0.00    +0.026 C 
ATOM     24  CG2 VAL A   4      -1.168  16.059  22.341  0.00  0.00    +0.002 C 
ATOM     25  CG1 VAL A   4      -0.303  17.691  20.660  0.00  0.00    +0.002 C 
ENDBRANCH  22  23
BRANCH  22  26
ATOM     26  C   VAL A   4      -2.287  19.651  21.570  0.00  0.00    +0.227 C 
ATOM     27  O   VAL A   4      -3.121  19.541  20.670  0.00  0.00    -0.286 OA
ENDBRANCH  22  26
ENDBRANCH  20  22
ENDBRANCH   1  18
BRANCH   1  28
ATOM     28  CB  LYS A   3      -4.972  19.401  25.789  0.00  0.00    +0.029 C 
BRANCH  28  29
ATOM     29  CG  LYS A   3      -6.323  19.264  26.464  0.00  0.00    +0.000 C 
BRANCH  29  30
ATOM     30  CD  LYS A   3      -6.824  20.630  26.910  0.00  0.00    -0.024 C 
BRANCH  30  31
ATOM     31  CE  LYS A   3      -8.254  20.534  27.409  0.00  0.00    -0.086 C 
BRANCH  31  32
ATOM     32  NZ  LYS A   3      -8.758  21.877  27.813  0.00  0.00    +0.380 N 
ATOM     33  HZ1 LYS A   3      -8.159  22.256  28.574  0.00  0.00    -0.089 HD
ATOM     34  HZ2 LYS A   3      -9.738  21.791  28.151  0.00  0.00    -0.089 HD
ATOM     35  HZ3 LYS A   3      -8.728  22.518  26.994  0.00  0.00    -0.089 HD
ENDBRANCH  31  32
ENDBRANCH  30  31
ENDBRANCH  29  30
ENDBRANCH  28  29
ENDBRANCH   1  28
TORSDOF 16
REMARK  Name = ../refined-set-2016/2yki/2yki_pocket.pdb
REMARK  281 active torsions:
REMARK  status: ('A' for Active; 'I' for Inactive)
REMARK    1  A    between atoms: _1  and  _3
REMARK    2  A    between atoms: _3  and  _4
REMARK    3  A    between atoms: _3  and  _6
REMARK    4  A    between atoms: _6  and  _7
REMARK    5  A    between atoms: _13  and  _15
REMARK    6  A    between atoms: _15  and  _16
REMARK    7  A    between atoms: _19  and  _21
REMARK    8  A    between atoms: _21  and  _22
REMARK    9  A    between atoms: _21  and  _24
REMARK   10  A    between atoms: _24  and  _25
REMARK   11  A    between atoms: _31  and  _33
REMARK   12  A    between atoms: _33  and  _34
REMARK   13  A    between atoms: _33  and  _36
REMARK   14  A    between atoms: _36  and  _37
REMARK   15  A    between atoms: _37  and  _38
REMARK   16  A    between atoms: _43  and  _45
REMARK   17  A    between atoms: _45  and  _46
REMARK   18  A    between atoms: _45  and  _48
REMARK   19  A    between atoms: _48  and  _49
REMARK   20  A    between atoms: _52  and  _54
REMARK   21  A    between atoms: _54  and  _55
REMARK   22  A    between atoms: _58  and  _60
REMARK   23  A    between atoms: _60  and  _61
REMARK   24  A    between atoms: _60  and  _63
REMARK   25  A    between atoms: _63  and  _64
REMARK   26  A    between atoms: _67  and  _69
REMARK   27  A    between atoms: _69  and  _70
REMARK   28  A    between atoms: _69  and  _72
REMARK   29  A    between atoms: _72  and  _73
REMARK   30  A    between atoms: _73  and  _74
REMARK   31  A    between atoms: _76  and  _78
REMARK   32  A    between atoms: _78  and  _79
REMARK   33  A    between atoms: _78  and  _81
REMARK   34  A    between atoms: _81  and  _82
REMARK   35  A    between atoms: _82  and  _83
REMARK   36  A    between atoms: _86  and  _88
REMARK   37  A    between atoms: _88  and  _89
REMARK   38  A    between atoms: _88  and  _91
REMARK   39  A    between atoms: _91  and  _92
REMARK   40  A    between atoms: _95  and  _97
REMARK   41  A    between atoms: _97  and  _98
REMARK   42  A    between atoms: _97  and  _100
REMARK   43  A    between atoms: _100  and  _101
REMARK   44  A    between atoms: _104  and  _106
REMARK   45  A    between atoms: _106  and  _107
REMARK   46  A    between atoms: _106  and  _109
REMARK   47  A    between atoms: _109  and  _110
REMARK   48  A    between atoms: _112  and  _114
REMARK   49  A    between atoms: _114  and  _115
REMARK   50  A    between atoms: _114  and  _117
REMARK   51  A    between atoms: _117  and  _118
REMARK   52  A    between atoms: _123  and  _125
REMARK   53  A    between atoms: _125  and  _126
REMARK   54  A    between atoms: _125  and  _128
REMARK   55  A    between atoms: _128  and  _129
REMARK   56  A    between atoms: _131  and  _133
REMARK   57  A    between atoms: _133  and  _134
REMARK   58  A    between atoms: _133  and  _136
REMARK   59  A    between atoms: _136  and  _137
REMARK   60  A    between atoms: _139  and  _141
REMARK   61  A    between atoms: _141  and  _142
REMARK   62  A    between atoms: _141  and  _144
REMARK   63  A    between atoms: _144  and  _145
REMARK   64  A    between atoms: _148  and  _150
REMARK   65  A    between atoms: _150  and  _151
REMARK   66  A    between atoms: _154  and  _156
REMARK   67  A    between atoms: _156  and  _157
REMARK   68  A    between atoms: _156  and  _159
REMARK   69  A    between atoms: _159  and  _160
REMARK   70  A    between atoms: _163  and  _165
REMARK   71  A    between atoms: _165  and  _166
REMARK   72  A    between atoms: _165  and  _168
REMARK   73  A    between atoms: _168  and  _169
REMARK   74  A    between atoms: _169  and  _170
REMARK   75  A    between atoms: _170  and  _171
REMARK   76  A    between atoms: _171  and  _172
REMARK   77  A    between atoms: _176  and  _178
REMARK   78  A    between atoms: _178  and  _179
REMARK   79  A    between atoms: _178  and  _181
REMARK   80  A    between atoms: _181  and  _182
REMARK   81  A    between atoms: _185  and  _187
REMARK   82  A    between atoms: _187  and  _188
REMARK   83  A    between atoms: _187  and  _190
REMARK   84  A    between atoms: _190  and  _191
REMARK   85  A    between atoms: _194  and  _196
REMARK   86  A    between atoms: _196  and  _197
REMARK   87  A    between atoms: _196  and  _199
REMARK   88  A    between atoms: _202  and  _204
REMARK   89  A    between atoms: _204  and  _205
REMARK   90  A    between atoms: _204  and  _207
REMARK   91  A    between atoms: _207  and  _208
REMARK   92  A    between atoms: _211  and  _213
REMARK   93  A    between atoms: _213  and  _214
REMARK   94  A    between atoms: _213  and  _216
REMARK   95  A    between atoms: _216  and  _217
REMARK   96  A    between atoms: _220  and  _222
REMARK   97  A    between atoms: _222  and  _223
REMARK   98  A    between atoms: _225  and  _227
REMARK   99  A    between atoms: _227  and  _228
REMARK  100  A    between atoms: _227  and  _230
REMARK  101  A    between atoms: _230  and  _231
REMARK  102  A    between atoms: _234  and  _236
REMARK  103  A    between atoms: _236  and  _237
REMARK  104  A    between atoms: _239  and  _241
REMARK  105  A    between atoms: _241  and  _242
REMARK  106  A    between atoms: _241  and  _244
REMARK  107  A    between atoms: _244  and  _245
REMARK  108  A    between atoms: _245  and  _246
REMARK  109  A    between atoms: _248  and  _250
REMARK  110  A    between atoms: _250  and  _251
REMARK  111  A    between atoms: _250  and  _253
REMARK  112  A    between atoms: _253  and  _254
REMARK  113  A    between atoms: _257  and  _259
REMARK  114  A    between atoms: _259  and  _260
REMARK  115  A    between atoms: _259  and  _262
REMARK  116  A    between atoms: _262  and  _263
REMARK  117  A    between atoms: _263  and  _264
REMARK  118  A    between atoms: _264  and  _265
REMARK  119  A    between atoms: _265  and  _266
REMARK  120  A    between atoms: _270  and  _272
REMARK  121  A    between atoms: _272  and  _273
REMARK  122  A    between atoms: _276  and  _278
REMARK  123  A    between atoms: _278  and  _279
REMARK  124  A    between atoms: _278  and  _281
REMARK  125  A    between atoms: _281  and  _282
REMARK  126  A    between atoms: _285  and  _287
REMARK  127  A    between atoms: _287  and  _288
REMARK  128  A    between atoms: _287  and  _290
REMARK  129  A    between atoms: _290  and  _291
REMARK  130  A    between atoms: _294  and  _296
REMARK  131  A    between atoms: _296  and  _297
REMARK  132  A    between atoms: _296  and  _299
REMARK  133  A    between atoms: _299  and  _300
REMARK  134  A    between atoms: _303  and  _305
REMARK  135  A    between atoms: _305  and  _306
REMARK  136  A    between atoms: _305  and  _308
REMARK  137  A    between atoms: _308  and  _309
REMARK  138  A    between atoms: _314  and  _316
REMARK  139  A    between atoms: _316  and  _317
REMARK  140  A    between atoms: _316  and  _319
REMARK  141  A    between atoms: _319  and  _320
REMARK  142  A    between atoms: _325  and  _327
REMARK  143  A    between atoms: _327  and  _328
REMARK  144  A    between atoms: _327  and  _330
REMARK  145  A    between atoms: _330  and  _331
REMARK  146  A    between atoms: _334  and  _336
REMARK  147  A    between atoms: _336  and  _337
REMARK  148  A    between atoms: _339  and  _341
REMARK  149  A    between atoms: _341  and  _342
REMARK  150  A    between atoms: _341  and  _344
REMARK  151  A    between atoms: _344  and  _345
REMARK  152  A    between atoms: _348  and  _350
REMARK  153  A    between atoms: _350  and  _351
REMARK  154  A    between atoms: _350  and  _353
REMARK  155  A    between atoms: _353  and  _354
REMARK  156  A    between atoms: _357  and  _359
REMARK  157  A    between atoms: _359  and  _360
REMARK  158  A    between atoms: _363  and  _365
REMARK  159  A    between atoms: _365  and  _366
REMARK  160  A    between atoms: _365  and  _368
REMARK  161  A    between atoms: _368  and  _369
REMARK  162  A    between atoms: _369  and  _370
REMARK  163  A    between atoms: _370  and  _371
REMARK  164  A    between atoms: _371  and  _372
REMARK  165  A    between atoms: _376  and  _378
REMARK  166  A    between atoms: _378  and  _379
REMARK  167  A    between atoms: _378  and  _381
REMARK  168  A    between atoms: _381  and  _382
REMARK  169  A    between atoms: _384  and  _386
REMARK  170  A    between atoms: _386  and  _387
REMARK  171  A    between atoms: _389  and  _391
REMARK  172  A    between atoms: _391  and  _392
REMARK  173  A    between atoms: _391  and  _394
REMARK  174  A    between atoms: _394  and  _395
REMARK  175  A    between atoms: _398  and  _400
REMARK  176  A    between atoms: _400  and  _401
REMARK  177  A    between atoms: _400  and  _403
REMARK  178  A    between atoms: _403  and  _404
REMARK  179  A    between atoms: _410  and  _412
REMARK  180  A    between atoms: _412  and  _413
REMARK  181  A    between atoms: _415  and  _417
REMARK  182  A    between atoms: _417  and  _418
REMARK  183  A    between atoms: _417  and  _420
REMARK  184  A    between atoms: _423  and  _425
REMARK  185  A    between atoms: _425  and  _426
REMARK  186  A    between atoms: _428  and  _430
REMARK  187  A    between atoms: _430  and  _431
REMARK  188  A    between atoms: _430  and  _433
REMARK  189  A    between atoms: _433  and  _434
REMARK  190  A    between atoms: _440  and  _442
REMARK  191  A    between atoms: _442  and  _443
REMARK  192  A    between atoms: _442  and  _445
REMARK  193  A    between atoms: _445  and  _446
REMARK  194  A    between atoms: _451  and  _452
REMARK  195  A    between atoms: _454  and  _456
REMARK  196  A    between atoms: _456  and  _457
REMARK  197  A    between atoms: _456  and  _459
REMARK  198  A    between atoms: _459  and  _460
REMARK  199  A    between atoms: _462  and  _464
REMARK  200  A    between atoms: _464  and  _465
REMARK  201  A    between atoms: _468  and  _470
REMARK  202  A    between atoms: _470  and  _471
REMARK  203  A    between atoms: _470  and  _473
REMARK  204  A    between atoms: _473  and  _474
REMARK  205  A    between atoms: _479  and  _480
REMARK  206  A    between atoms: _482  and  _484
REMARK  207  A    between atoms: _484  and  _485
REMARK  208  A    between atoms: _484  and  _487
REMARK  209  A    between atoms: _490  and  _492
REMARK  210  A    between atoms: _492  and  _493
REMARK  211  A    between atoms: _492  and  _495
REMARK  212  A    between atoms: _495  and  _496
REMARK  213  A    between atoms: _499  and  _501
REMARK  214  A    between atoms: _501  and  _502
REMARK  215  A    between atoms: _501  and  _504
REMARK  216  A    between atoms: _507  and  _509
REMARK  217  A    between atoms: _509  and  _510
REMARK  218  A    between atoms: _509  and  _512
REMARK  219  A    between atoms: _512  and  _513
REMARK  220  A    between atoms: _516  and  _518
REMARK  221  A    between atoms: _518  and  _519
REMARK  222  A    between atoms: _518  and  _521
REMARK  223  A    between atoms: _521  and  _522
REMARK  224  A    between atoms: _525  and  _527
REMARK  225  A    between atoms: _527  and  _528
REMARK  226  A    between atoms: _527  and  _530
REMARK  227  A    between atoms: _530  and  _531
REMARK  228  A    between atoms: _531  and  _532
REMARK  229  A    between atoms: _532  and  _533
REMARK  230  A    between atoms: _533  and  _534
REMARK  231  A    between atoms: _538  and  _540
REMARK  232  A    between atoms: _540  and  _541
REMARK  233  A    between atoms: _540  and  _543
REMARK  234  A    between atoms: _543  and  _544
REMARK  235  A    between atoms: _549  and  _551
REMARK  236  A    between atoms: _551  and  _552
REMARK  237  A    between atoms: _555  and  _557
REMARK  238  A    between atoms: _557  and  _558
REMARK  239  A    between atoms: _557  and  _560
REMARK  240  A    between atoms: _560  and  _561
REMARK  241  A    between atoms: _571  and  _573
REMARK  242  A    between atoms: _573  and  _574
REMARK  243  A    between atoms: _573  and  _576
REMARK  244  A    between atoms: _576  and  _577
REMARK  245  A    between atoms: _577  and  _578
REMARK  246  A    between atoms: _581  and  _583
REMARK  247  A    between atoms: _583  and  _584
REMARK  248  A    between atoms: _583  and  _586
REMARK  249  A    between atoms: _586  and  _587
REMARK  250  A    between atoms: _589  and  _591
REMARK  251  A    between atoms: _591  and  _592
REMARK  252  A    between atoms: _591  and  _594
REMARK  253  A    between atoms: _594  and  _595
REMARK  254  A    between atoms: _601  and  _603
REMARK  255  A    between atoms: _603  and  _604
REMARK  256  A    between atoms: _603  and  _606
REMARK  257  A    between atoms: _606  and  _607
REMARK  258  A    between atoms: _610  and  _612
REMARK  259  A    between atoms: _612  and  _613
REMARK  260  A    between atoms: _612  and  _615
REMARK  261  A    between atoms: _618  and  _620
REMARK  262  A    between atoms: _620  and  _621
REMARK  263  A    between atoms: _620  and  _623
REMARK  264  A    between atoms: _623  and  _624
REMARK  265  A    between atoms: _624  and  _625
REMARK  266  A    between atoms: _627  and  _629
REMARK  267  A    between atoms: _629  and  _630
REMARK  268  A    between atoms: _632  and  _634
REMARK  269  A    between atoms: _634  and  _635
REMARK  270  A    between atoms: _634  and  _637
REMARK  271  A    between atoms: _637  and  _638
REMARK  272  A    between atoms: _641  and  _643
REMARK  273  A    between atoms: _643  and  _644
REMARK  274  A    between atoms: _643  and  _646
REMARK  275  A    between atoms: _646  and  _647
REMARK  276  A    between atoms: _647  and  _648
REMARK  277  A    between atoms: _648  and  _649
REMARK  278  A    between atoms: _649  and  _650
REMARK  279  A    between atoms: _654  and  _656
REMARK  280  A    between atoms: _656  and  _657
REMARK  281  A    between atoms: _656  and  _659
REMARK                            x       y       z     vdW  Elec       q    Type
REMARK                         _______ _______ _______ _____ _____    ______ ____
ROOT
ATOM      1  O   HOH     1      19.916  16.818  28.523  0.00  0.00    +0.000 OA
ENDROOT
TORSDOF 0
REMARK  Name = ../refined-set-2016/2yki/2yki_pocket.pdb
REMARK  281 active torsions:
REMARK  status: ('A' for Active; 'I' for Inactive)
REMARK    1  A    between atoms: _1  and  _3
REMARK    2  A    between atoms: _3  and  _4
REMARK    3  A    between atoms: _3  and  _6
REMARK    4  A    between atoms: _6  and  _7
REMARK    5  A    between atoms: _13  and  _15
REMARK    6  A    between atoms: _15  and  _16
REMARK    7  A    between atoms: _19  and  _21
REMARK    8  A    between atoms: _21  and  _22
REMARK    9  A    between atoms: _21  and  _24
REMARK   10  A    between atoms: _24  and  _25
REMARK   11  A    between atoms: _31  and  _33
REMARK   12  A    between atoms: _33  and  _34
REMARK   13  A    between atoms: _33  and  _36
REMARK   14  A    between atoms: _36  and  _37
REMARK   15  A    between atoms: _37  and  _38
REMARK   16  A    between atoms: _43  and  _45
REMARK   17  A    between atoms: _45  and  _46
REMARK   18  A    between atoms: _45  and  _48
REMARK   19  A    between atoms: _48  and  _49
REMARK   20  A    between atoms: _52  and  _54
REMARK   21  A    between atoms: _54  and  _55
REMARK   22  A    between atoms: _58  and  _60
REMARK   23  A    between atoms: _60  and  _61
REMARK   24  A    between atoms: _60  and  _63
REMARK   25  A    between atoms: _63  and  _64
REMARK   26  A    between atoms: _67  and  _69
REMARK   27  A    between atoms: _69  and  _70
REMARK   28  A    between atoms: _69  and  _72
REMARK   29  A    between atoms: _72  and  _73
REMARK   30  A    between atoms: _73  and  _74
REMARK   31  A    between atoms: _76  and  _78
REMARK   32  A    between atoms: _78  and  _79
REMARK   33  A    between atoms: _78  and  _81
REMARK   34  A    between atoms: _81  and  _82
REMARK   35  A    between atoms: _82  and  _83
REMARK   36  A    between atoms: _86  and  _88
REMARK   37  A    between atoms: _88  and  _89
REMARK   38  A    between atoms: _88  and  _91
REMARK   39  A    between atoms: _91  and  _92
REMARK   40  A    between atoms: _95  and  _97
REMARK   41  A    between atoms: _97  and  _98
REMARK   42  A    between atoms: _97  and  _100
REMARK   43  A    between atoms: _100  and  _101
REMARK   44  A    between atoms: _104  and  _106
REMARK   45  A    between atoms: _106  and  _107
REMARK   46  A    between atoms: _106  and  _109
REMARK   47  A    between atoms: _109  and  _110
REMARK   48  A    between atoms: _112  and  _114
REMARK   49  A    between atoms: _114  and  _115
REMARK   50  A    between atoms: _114  and  _117
REMARK   51  A    between atoms: _117  and  _118
REMARK   52  A    between atoms: _123  and  _125
REMARK   53  A    between atoms: _125  and  _126
REMARK   54  A    between atoms: _125  and  _128
REMARK   55  A    between atoms: _128  and  _129
REMARK   56  A    between atoms: _131  and  _133
REMARK   57  A    between atoms: _133  and  _134
REMARK   58  A    between atoms: _133  and  _136
REMARK   59  A    between atoms: _136  and  _137
REMARK   60  A    between atoms: _139  and  _141
REMARK   61  A    between atoms: _141  and  _142
REMARK   62  A    between atoms: _141  and  _144
REMARK   63  A    between atoms: _144  and  _145
REMARK   64  A    between atoms: _148  and  _150
REMARK   65  A    between atoms: _150  and  _151
REMARK   66  A    between atoms: _154  and  _156
REMARK   67  A    between atoms: _156  and  _157
REMARK   68  A    between atoms: _156  and  _159
REMARK   69  A    between atoms: _159  and  _160
REMARK   70  A    between atoms: _163  and  _165
REMARK   71  A    between atoms: _165  and  _166
REMARK   72  A    between atoms: _165  and  _168
REMARK   73  A    between atoms: _168  and  _169
REMARK   74  A    between atoms: _169  and  _170
REMARK   75  A    between atoms: _170  and  _171
REMARK   76  A    between atoms: _171  and  _172
REMARK   77  A    between atoms: _176  and  _178
REMARK   78  A    between atoms: _178  and  _179
REMARK   79  A    between atoms: _178  and  _181
REMARK   80  A    between atoms: _181  and  _182
REMARK   81  A    between atoms: _185  and  _187
REMARK   82  A    between atoms: _187  and  _188
REMARK   83  A    between atoms: _187  and  _190
REMARK   84  A    between atoms: _190  and  _191
REMARK   85  A    between atoms: _194  and  _196
REMARK   86  A    between atoms: _196  and  _197
REMARK   87  A    between atoms: _196  and  _199
REMARK   88  A    between atoms: _202  and  _204
REMARK   89  A    between atoms: _204  and  _205
REMARK   90  A    between atoms: _204  and  _207
REMARK   91  A    between atoms: _207  and  _208
REMARK   92  A    between atoms: _211  and  _213
REMARK   93  A    between atoms: _213  and  _214
REMARK   94  A    between atoms: _213  and  _216
REMARK   95  A    between atoms: _216  and  _217
REMARK   96  A    between atoms: _220  and  _222
REMARK   97  A    between atoms: _222  and  _223
REMARK   98  A    between atoms: _225  and  _227
REMARK   99  A    between atoms: _227  and  _228
REMARK  100  A    between atoms: _227  and  _230
REMARK  101  A    between atoms: _230  and  _231
REMARK  102  A    between atoms: _234  and  _236
REMARK  103  A    between atoms: _236  and  _237
REMARK  104  A    between atoms: _239  and  _241
REMARK  105  A    between atoms: _241  and  _242
REMARK  106  A    between atoms: _241  and  _244
REMARK  107  A    between atoms: _244  and  _245
REMARK  108  A    between atoms: _245  and  _246
REMARK  109  A    between atoms: _248  and  _250
REMARK  110  A    between atoms: _250  and  _251
REMARK  111  A    between atoms: _250  and  _253
REMARK  112  A    between atoms: _253  and  _254
REMARK  113  A    between atoms: _257  and  _259
REMARK  114  A    between atoms: _259  and  _260
REMARK  115  A    between atoms: _259  and  _262
REMARK  116  A    between atoms: _262  and  _263
REMARK  117  A    between atoms: _263  and  _264
REMARK  118  A    between atoms: _264  and  _265
REMARK  119  A    between atoms: _265  and  _266
REMARK  120  A    between atoms: _270  and  _272
REMARK  121  A    between atoms: _272  and  _273
REMARK  122  A    between atoms: _276  and  _278
REMARK  123  A    between atoms: _278  and  _279
REMARK  124  A    between atoms: _278  and  _281
REMARK  125  A    between atoms: _281  and  _282
REMARK  126  A    between atoms: _285  and  _287
REMARK  127  A    between atoms: _287  and  _288
REMARK  128  A    between atoms: _287  and  _290
REMARK  129  A    between atoms: _290  and  _291
REMARK  130  A    between atoms: _294  and  _296
REMARK  131  A    between atoms: _296  and  _297
REMARK  132  A    between atoms: _296  and  _299
REMARK  133  A    between atoms: _299  and  _300
REMARK  134  A    between atoms: _303  and  _305
REMARK  135  A    between atoms: _305  and  _306
REMARK  136  A    between atoms: _305  and  _308
REMARK  137  A    between atoms: _308  and  _309
REMARK  138  A    between atoms: _314  and  _316
REMARK  139  A    between atoms: _316  and  _317
REMARK  140  A    between atoms: _316  and  _319
REMARK  141  A    between atoms: _319  and  _320
REMARK  142  A    between atoms: _325  and  _327
REMARK  143  A    between atoms: _327  and  _328
REMARK  144  A    between atoms: _327  and  _330
REMARK  145  A    between atoms: _330  and  _331
REMARK  146  A    between atoms: _334  and  _336
REMARK  147  A    between atoms: _336  and  _337
REMARK  148  A    between atoms: _339  and  _341
REMARK  149  A    between atoms: _341  and  _342
REMARK  150  A    between atoms: _341  and  _344
REMARK  151  A    between atoms: _344  and  _345
REMARK  152  A    between atoms: _348  and  _350
REMARK  153  A    between atoms: _350  and  _351
REMARK  154  A    between atoms: _350  and  _353
REMARK  155  A    between atoms: _353  and  _354
REMARK  156  A    between atoms: _357  and  _359
REMARK  157  A    between atoms: _359  and  _360
REMARK  158  A    between atoms: _363  and  _365
REMARK  159  A    between atoms: _365  and  _366
REMARK  160  A    between atoms: _365  and  _368
REMARK  161  A    between atoms: _368  and  _369
REMARK  162  A    between atoms: _369  and  _370
REMARK  163  A    between atoms: _370  and  _371
REMARK  164  A    between atoms: _371  and  _372
REMARK  165  A    between atoms: _376  and  _378
REMARK  166  A    between atoms: _378  and  _379
REMARK  167  A    between atoms: _378  and  _381
REMARK  168  A    between atoms: _381  and  _382
REMARK  169  A    between atoms: _384  and  _386
REMARK  170  A    between atoms: _386  and  _387
REMARK  171  A    between atoms: _389  and  _391
REMARK  172  A    between atoms: _391  and  _392
REMARK  173  A    between atoms: _391  and  _394
REMARK  174  A    between atoms: _394  and  _395
REMARK  175  A    between atoms: _398  and  _400
REMARK  176  A    between atoms: _400  and  _401
REMARK  177  A    between atoms: _400  and  _403
REMARK  178  A    between atoms: _403  and  _404
REMARK  179  A    between atoms: _410  and  _412
REMARK  180  A    between atoms: _412  and  _413
REMARK  181  A    between atoms: _415  and  _417
REMARK  182  A    between atoms: _417  and  _418
REMARK  183  A    between atoms: _417  and  _420
REMARK  184  A    between atoms: _423  and  _425
REMARK  185  A    between atoms: _425  and  _426
REMARK  186  A    between atoms: _428  and  _430
REMARK  187  A    between atoms: _430  and  _431
REMARK  188  A    between atoms: _430  and  _433
REMARK  189  A    between atoms: _433  and  _434
REMARK  190  A    between atoms: _440  and  _442
REMARK  191  A    between atoms: _442  and  _443
REMARK  192  A    between atoms: _442  and  _445
REMARK  193  A    between atoms: _445  and  _446
REMARK  194  A    between atoms: _451  and  _452
REMARK  195  A    between atoms: _454  and  _456
REMARK  196  A    between atoms: _456  and  _457
REMARK  197  A    between atoms: _456  and  _459
REMARK  198  A    between atoms: _459  and  _460
REMARK  199  A    between atoms: _462  and  _464
REMARK  200  A    between atoms: _464  and  _465
REMARK  201  A    between atoms: _468  and  _470
REMARK  202  A    between atoms: _470  and  _471
REMARK  203  A    between atoms: _470  and  _473
REMARK  204  A    between atoms: _473  and  _474
REMARK  205  A    between atoms: _479  and  _480
REMARK  206  A    between atoms: _482  and  _484
REMARK  207  A    between atoms: _484  and  _485
REMARK  208  A    between atoms: _484  and  _487
REMARK  209  A    between atoms: _490  and  _492
REMARK  210  A    between atoms: _492  and  _493
REMARK  211  A    between atoms: _492  and  _495
REMARK  212  A    between atoms: _495  and  _496
REMARK  213  A    between atoms: _499  and  _501
REMARK  214  A    between atoms: _501  and  _502
REMARK  215  A    between atoms: _501  and  _504
REMARK  216  A    between atoms: _507  and  _509
REMARK  217  A    between atoms: _509  and  _510
REMARK  218  A    between atoms: _509  and  _512
REMARK  219  A    between atoms: _512  and  _513
REMARK  220  A    between atoms: _516  and  _518
REMARK  221  A    between atoms: _518  and  _519
REMARK  222  A    between atoms: _518  and  _521
REMARK  223  A    between atoms: _521  and  _522
REMARK  224  A    between atoms: _525  and  _527
REMARK  225  A    between atoms: _527  and  _528
REMARK  226  A    between atoms: _527  and  _530
REMARK  227  A    between atoms: _530  and  _531
REMARK  228  A    between atoms: _531  and  _532
REMARK  229  A    between atoms: _532  and  _533
REMARK  230  A    between atoms: _533  and  _534
REMARK  231  A    between atoms: _538  and  _540
REMARK  232  A    between atoms: _540  and  _541
REMARK  233  A    between atoms: _540  and  _543
REMARK  234  A    between atoms: _543  and  _544
REMARK  235  A    between atoms: _549  and  _551
REMARK  236  A    between atoms: _551  and  _552
REMARK  237  A    between atoms: _555  and  _557
REMARK  238  A    between atoms: _557  and  _558
REMARK  239  A    between atoms: _557  and  _560
REMARK  240  A    between atoms: _560  and  _561
REMARK  241  A    between atoms: _571  and  _573
REMARK  242  A    between atoms: _573  and  _574
REMARK  243  A    between atoms: _573  and  _576
REMARK  244  A    between atoms: _576  and  _577
REMARK  245  A    between atoms: _577  and  _578
REMARK  246  A    between atoms: _581  and  _583
REMARK  247  A    between atoms: _583  and  _584
REMARK  248  A    between atoms: _583  and  _586
REMARK  249  A    between atoms: _586  and  _587
REMARK  250  A    between atoms: _589  and  _591
REMARK  251  A    between atoms: _591  and  _592
REMARK  252  A    between atoms: _591  and  _594
REMARK  253  A    between atoms: _594  and  _595
REMARK  254  A    between atoms: _601  and  _603
REMARK  255  A    between atoms: _603  and  _604
REMARK  256  A    between atoms: _603  and  _606
REMARK  257  A    between atoms: _606  and  _607
REMARK  258  A    between atoms: _610  and  _612
REMARK  259  A    between atoms: _612  and  _613
REMARK  260  A    between atoms: _612  and  _615
REMARK  261  A    between atoms: _618  and  _620
REMARK  262  A    between atoms: _620  and  _621
REMARK  263  A    between atoms: _620  and  _623
REMARK  264  A    between atoms: _623  and  _624
REMARK  265  A    between atoms: _624  and  _625
REMARK  266  A    between atoms: _627  and  _629
REMARK  267  A    between atoms: _629  and  _630
REMARK  268  A    between atoms: _632  and  _634
REMARK  269  A    between atoms: _634  and  _635
REMARK  270  A    between atoms: _634  and  _637
REMARK  271  A    between atoms: _637  and  _638
REMARK  272  A    between atoms: _641  and  _643
REMARK  273  A    between atoms: _643  and  _644
REMARK  274  A    between atoms: _643  and  _646
REMARK  275  A    between atoms: _646  and  _647
REMARK  276  A    between atoms: _647  and  _648
REMARK  277  A    between atoms: _648  and  _649
REMARK  278  A    between atoms: _649  and  _650
REMARK  279  A    between atoms: _654  and  _656
REMARK  280  A    between atoms: _656  and  _657
REMARK  281  A    between atoms: _656  and  _659
REMARK                            x       y       z     vdW  Elec       q    Type
REMARK                         _______ _______ _______ _____ _____    ______ ____
ROOT
ATOM      1  O   HOH     1      16.143  14.461  26.257  0.00  0.00    +0.000 OA
ENDROOT
TORSDOF 0
REMARK  Name = ../refined-set-2016/2yki/2yki_pocket.pdb
REMARK  281 active torsions:
REMARK  status: ('A' for Active; 'I' for Inactive)
REMARK    1  A    between atoms: _1  and  _3
REMARK    2  A    between atoms: _3  and  _4
REMARK    3  A    between atoms: _3  and  _6
REMARK    4  A    between atoms: _6  and  _7
REMARK    5  A    between atoms: _13  and  _15
REMARK    6  A    between atoms: _15  and  _16
REMARK    7  A    between atoms: _19  and  _21
REMARK    8  A    between atoms: _21  and  _22
REMARK    9  A    between atoms: _21  and  _24
REMARK   10  A    between atoms: _24  and  _25
REMARK   11  A    between atoms: _31  and  _33
REMARK   12  A    between atoms: _33  and  _34
REMARK   13  A    between atoms: _33  and  _36
REMARK   14  A    between atoms: _36  and  _37
REMARK   15  A    between atoms: _37  and  _38
REMARK   16  A    between atoms: _43  and  _45
REMARK   17  A    between atoms: _45  and  _46
REMARK   18  A    between atoms: _45  and  _48
REMARK   19  A    between atoms: _48  and  _49
REMARK   20  A    between atoms: _52  and  _54
REMARK   21  A    between atoms: _54  and  _55
REMARK   22  A    between atoms: _58  and  _60
REMARK   23  A    between atoms: _60  and  _61
REMARK   24  A    between atoms: _60  and  _63
REMARK   25  A    between atoms: _63  and  _64
REMARK   26  A    between atoms: _67  and  _69
REMARK   27  A    between atoms: _69  and  _70
REMARK   28  A    between atoms: _69  and  _72
REMARK   29  A    between atoms: _72  and  _73
REMARK   30  A    between atoms: _73  and  _74
REMARK   31  A    between atoms: _76  and  _78
REMARK   32  A    between atoms: _78  and  _79
REMARK   33  A    between atoms: _78  and  _81
REMARK   34  A    between atoms: _81  and  _82
REMARK   35  A    between atoms: _82  and  _83
REMARK   36  A    between atoms: _86  and  _88
REMARK   37  A    between atoms: _88  and  _89
REMARK   38  A    between atoms: _88  and  _91
REMARK   39  A    between atoms: _91  and  _92
REMARK   40  A    between atoms: _95  and  _97
REMARK   41  A    between atoms: _97  and  _98
REMARK   42  A    between atoms: _97  and  _100
REMARK   43  A    between atoms: _100  and  _101
REMARK   44  A    between atoms: _104  and  _106
REMARK   45  A    between atoms: _106  and  _107
REMARK   46  A    between atoms: _106  and  _109
REMARK   47  A    between atoms: _109  and  _110
REMARK   48  A    between atoms: _112  and  _114
REMARK   49  A    between atoms: _114  and  _115
REMARK   50  A    between atoms: _114  and  _117
REMARK   51  A    between atoms: _117  and  _118
REMARK   52  A    between atoms: _123  and  _125
REMARK   53  A    between atoms: _125  and  _126
REMARK   54  A    between atoms: _125  and  _128
REMARK   55  A    between atoms: _128  and  _129
REMARK   56  A    between atoms: _131  and  _133
REMARK   57  A    between atoms: _133  and  _134
REMARK   58  A    between atoms: _133  and  _136
REMARK   59  A    between atoms: _136  and  _137
REMARK   60  A    between atoms: _139  and  _141
REMARK   61  A    between atoms: _141  and  _142
REMARK   62  A    between atoms: _141  and  _144
REMARK   63  A    between atoms: _144  and  _145
REMARK   64  A    between atoms: _148  and  _150
REMARK   65  A    between atoms: _150  and  _151
REMARK   66  A    between atoms: _154  and  _156
REMARK   67  A    between atoms: _156  and  _157
REMARK   68  A    between atoms: _156  and  _159
REMARK   69  A    between atoms: _159  and  _160
REMARK   70  A    between atoms: _163  and  _165
REMARK   71  A    between atoms: _165  and  _166
REMARK   72  A    between atoms: _165  and  _168
REMARK   73  A    between atoms: _168  and  _169
REMARK   74  A    between atoms: _169  and  _170
REMARK   75  A    between atoms: _170  and  _171
REMARK   76  A    between atoms: _171  and  _172
REMARK   77  A    between atoms: _176  and  _178
REMARK   78  A    between atoms: _178  and  _179
REMARK   79  A    between atoms: _178  and  _181
REMARK   80  A    between atoms: _181  and  _182
REMARK   81  A    between atoms: _185  and  _187
REMARK   82  A    between atoms: _187  and  _188
REMARK   83  A    between atoms: _187  and  _190
REMARK   84  A    between atoms: _190  and  _191
REMARK   85  A    between atoms: _194  and  _196
REMARK   86  A    between atoms: _196  and  _197
REMARK   87  A    between atoms: _196  and  _199
REMARK   88  A    between atoms: _202  and  _204
REMARK   89  A    between atoms: _204  and  _205
REMARK   90  A    between atoms: _204  and  _207
REMARK   91  A    between atoms: _207  and  _208
REMARK   92  A    between atoms: _211  and  _213
REMARK   93  A    between atoms: _213  and  _214
REMARK   94  A    between atoms: _213  and  _216
REMARK   95  A    between atoms: _216  and  _217
REMARK   96  A    between atoms: _220  and  _222
REMARK   97  A    between atoms: _222  and  _223
REMARK   98  A    between atoms: _225  and  _227
REMARK   99  A    between atoms: _227  and  _228
REMARK  100  A    between atoms: _227  and  _230
REMARK  101  A    between atoms: _230  and  _231
REMARK  102  A    between atoms: _234  and  _236
REMARK  103  A    between atoms: _236  and  _237
REMARK  104  A    between atoms: _239  and  _241
REMARK  105  A    between atoms: _241  and  _242
REMARK  106  A    between atoms: _241  and  _244
REMARK  107  A    between atoms: _244  and  _245
REMARK  108  A    between atoms: _245  and  _246
REMARK  109  A    between atoms: _248  and  _250
REMARK  110  A    between atoms: _250  and  _251
REMARK  111  A    between atoms: _250  and  _253
REMARK  112  A    between atoms: _253  and  _254
REMARK  113  A    between atoms: _257  and  _259
REMARK  114  A    between atoms: _259  and  _260
REMARK  115  A    between atoms: _259  and  _262
REMARK  116  A    between atoms: _262  and  _263
REMARK  117  A    between atoms: _263  and  _264
REMARK  118  A    between atoms: _264  and  _265
REMARK  119  A    between atoms: _265  and  _266
REMARK  120  A    between atoms: _270  and  _272
REMARK  121  A    between atoms: _272  and  _273
REMARK  122  A    between atoms: _276  and  _278
REMARK  123  A    between atoms: _278  and  _279
REMARK  124  A    between atoms: _278  and  _281
REMARK  125  A    between atoms: _281  and  _282
REMARK  126  A    between atoms: _285  and  _287
REMARK  127  A    between atoms: _287  and  _288
REMARK  128  A    between atoms: _287  and  _290
REMARK  129  A    between atoms: _290  and  _291
REMARK  130  A    between atoms: _294  and  _296
REMARK  131  A    between atoms: _296  and  _297
REMARK  132  A    between atoms: _296  and  _299
REMARK  133  A    between atoms: _299  and  _300
REMARK  134  A    between atoms: _303  and  _305
REMARK  135  A    between atoms: _305  and  _306
REMARK  136  A    between atoms: _305  and  _308
REMARK  137  A    between atoms: _308  and  _309
REMARK  138  A    between atoms: _314  and  _316
REMARK  139  A    between atoms: _316  and  _317
REMARK  140  A    between atoms: _316  and  _319
REMARK  141  A    between atoms: _319  and  _320
REMARK  142  A    between atoms: _325  and  _327
REMARK  143  A    between atoms: _327  and  _328
REMARK  144  A    between atoms: _327  and  _330
REMARK  145  A    between atoms: _330  and  _331
REMARK  146  A    between atoms: _334  and  _336
REMARK  147  A    between atoms: _336  and  _337
REMARK  148  A    between atoms: _339  and  _341
REMARK  149  A    between atoms: _341  and  _342
REMARK  150  A    between atoms: _341  and  _344
REMARK  151  A    between atoms: _344  and  _345
REMARK  152  A    between atoms: _348  and  _350
REMARK  153  A    between atoms: _350  and  _351
REMARK  154  A    between atoms: _350  and  _353
REMARK  155  A    between atoms: _353  and  _354
REMARK  156  A    between atoms: _357  and  _359
REMARK  157  A    between atoms: _359  and  _360
REMARK  158  A    between atoms: _363  and  _365
REMARK  159  A    between atoms: _365  and  _366
REMARK  160  A    between atoms: _365  and  _368
REMARK  161  A    between atoms: _368  and  _369
REMARK  162  A    between atoms: _369  and  _370
REMARK  163  A    between atoms: _370  and  _371
REMARK  164  A    between atoms: _371  and  _372
REMARK  165  A    between atoms: _376  and  _378
REMARK  166  A    between atoms: _378  and  _379
REMARK  167  A    between atoms: _378  and  _381
REMARK  168  A    between atoms: _381  and  _382
REMARK  169  A    between atoms: _384  and  _386
REMARK  170  A    between atoms: _386  and  _387
REMARK  171  A    between atoms: _389  and  _391
REMARK  172  A    between atoms: _391  and  _392
REMARK  173  A    between atoms: _391  and  _394
REMARK  174  A    between atoms: _394  and  _395
REMARK  175  A    between atoms: _398  and  _400
REMARK  176  A    between atoms: _400  and  _401
REMARK  177  A    between atoms: _400  and  _403
REMARK  178  A    between atoms: _403  and  _404
REMARK  179  A    between atoms: _410  and  _412
REMARK  180  A    between atoms: _412  and  _413
REMARK  181  A    between atoms: _415  and  _417
REMARK  182  A    between atoms: _417  and  _418
REMARK  183  A    between atoms: _417  and  _420
REMARK  184  A    between atoms: _423  and  _425
REMARK  185  A    between atoms: _425  and  _426
REMARK  186  A    between atoms: _428  and  _430
REMARK  187  A    between atoms: _430  and  _431
REMARK  188  A    between atoms: _430  and  _433
REMARK  189  A    between atoms: _433  and  _434
REMARK  190  A    between atoms: _440  and  _442
REMARK  191  A    between atoms: _442  and  _443
REMARK  192  A    between atoms: _442  and  _445
REMARK  193  A    between atoms: _445  and  _446
REMARK  194  A    between atoms: _451  and  _452
REMARK  195  A    between atoms: _454  and  _456
REMARK  196  A    between atoms: _456  and  _457
REMARK  197  A    between atoms: _456  and  _459
REMARK  198  A    between atoms: _459  and  _460
REMARK  199  A    between atoms: _462  and  _464
REMARK  200  A    between atoms: _464  and  _465
REMARK  201  A    between atoms: _468  and  _470
REMARK  202  A    between atoms: _470  and  _471
REMARK  203  A    between atoms: _470  and  _473
REMARK  204  A    between atoms: _473  and  _474
REMARK  205  A    between atoms: _479  and  _480
REMARK  206  A    between atoms: _482  and  _484
REMARK  207  A    between atoms: _484  and  _485
REMARK  208  A    between atoms: _484  and  _487
REMARK  209  A    between atoms: _490  and  _492
REMARK  210  A    between atoms: _492  and  _493
REMARK  211  A    between atoms: _492  and  _495
REMARK  212  A    between atoms: _495  and  _496
REMARK  213  A    between atoms: _499  and  _501
REMARK  214  A    between atoms: _501  and  _502
REMARK  215  A    between atoms: _501  and  _504
REMARK  216  A    between atoms: _507  and  _509
REMARK  217  A    between atoms: _509  and  _510
REMARK  218  A    between atoms: _509  and  _512
REMARK  219  A    between atoms: _512  and  _513
REMARK  220  A    between atoms: _516  and  _518
REMARK  221  A    between atoms: _518  and  _519
REMARK  222  A    between atoms: _518  and  _521
REMARK  223  A    between atoms: _521  and  _522
REMARK  224  A    between atoms: _525  and  _527
REMARK  225  A    between atoms: _527  and  _528
REMARK  226  A    between atoms: _527  and  _530
REMARK  227  A    between atoms: _530  and  _531
REMARK  228  A    between atoms: _531  and  _532
REMARK  229  A    between atoms: _532  and  _533
REMARK  230  A    between atoms: _533  and  _534
REMARK  231  A    between atoms: _538  and  _540
REMARK  232  A    between atoms: _540  and  _541
REMARK  233  A    between atoms: _540  and  _543
REMARK  234  A    between atoms: _543  and  _544
REMARK  235  A    between atoms: _549  and  _551
REMARK  236  A    between atoms: _551  and  _552
REMARK  237  A    between atoms: _555  and  _557
REMARK  238  A    between atoms: _557  and  _558
REMARK  239  A    between atoms: _557  and  _560
REMARK  240  A    between atoms: _560  and  _561
REMARK  241  A    between atoms: _571  and  _573
REMARK  242  A    between atoms: _573  and  _574
REMARK  243  A    between atoms: _573  and  _576
REMARK  244  A    between atoms: _576  and  _577
REMARK  245  A    between atoms: _577  and  _578
REMARK  246  A    between atoms: _581  and  _583
REMARK  247  A    between atoms: _583  and  _584
REMARK  248  A    between atoms: _583  and  _586
REMARK  249  A    between atoms: _586  and  _587
REMARK  250  A    between atoms: _589  and  _591
REMARK  251  A    between atoms: _591  and  _592
REMARK  252  A    between atoms: _591  and  _594
REMARK  253  A    between atoms: _594  and  _595
REMARK  254  A    between atoms: _601  and  _603
REMARK  255  A    between atoms: _603  and  _604
REMARK  256  A    between atoms: _603  and  _606
REMARK  257  A    between atoms: _606  and  _607
REMARK  258  A    between atoms: _610  and  _612
REMARK  259  A    between atoms: _612  and  _613
REMARK  260  A    between atoms: _612  and  _615
REMARK  261  A    between atoms: _618  and  _620
REMARK  262  A    between atoms: _620  and  _621
REMARK  263  A    between atoms: _620  and  _623
REMARK  264  A    between atoms: _623  and  _624
REMARK  265  A    between atoms: _624  and  _625
REMARK  266  A    between atoms: _627  and  _629
REMARK  267  A    between atoms: _629  and  _630
REMARK  268  A    between atoms: _632  and  _634
REMARK  269  A    between atoms: _634  and  _635
REMARK  270  A    between atoms: _634  and  _637
REMARK  271  A    between atoms: _637  and  _638
REMARK  272  A    between atoms: _641  and  _643
REMARK  273  A    between atoms: _643  and  _644
REMARK  274  A    between atoms: _643  and  _646
REMARK  275  A    between atoms: _646  and  _647
REMARK  276  A    between atoms: _647  and  _648
REMARK  277  A    between atoms: _648  and  _649
REMARK  278  A    between atoms: _649  and  _650
REMARK  279  A    between atoms: _654  and  _656
REMARK  280  A    between atoms: _656  and  _657
REMARK  281  A    between atoms: _656  and  _659
REMARK                            x       y       z     vdW  Elec       q    Type
REMARK                         _______ _______ _______ _____ _____    ______ ____
ROOT
ATOM      1  O   HOH     1      16.205  11.974  25.398  0.00  0.00    +0.000 OA
ENDROOT
TORSDOF 0
REMARK  Name = ../refined-set-2016/2yki/2yki_pocket.pdb
REMARK  281 active torsions:
REMARK  status: ('A' for Active; 'I' for Inactive)
REMARK    1  A    between atoms: _1  and  _3
REMARK    2  A    between atoms: _3  and  _4
REMARK    3  A    between atoms: _3  and  _6
REMARK    4  A    between atoms: _6  and  _7
REMARK    5  A    between atoms: _13  and  _15
REMARK    6  A    between atoms: _15  and  _16
REMARK    7  A    between atoms: _19  and  _21
REMARK    8  A    between atoms: _21  and  _22
REMARK    9  A    between atoms: _21  and  _24
REMARK   10  A    between atoms: _24  and  _25
REMARK   11  A    between atoms: _31  and  _33
REMARK   12  A    between atoms: _33  and  _34
REMARK   13  A    between atoms: _33  and  _36
REMARK   14  A    between atoms: _36  and  _37
REMARK   15  A    between atoms: _37  and  _38
REMARK   16  A    between atoms: _43  and  _45
REMARK   17  A    between atoms: _45  and  _46
REMARK   18  A    between atoms: _45  and  _48
REMARK   19  A    between atoms: _48  and  _49
REMARK   20  A    between atoms: _52  and  _54
REMARK   21  A    between atoms: _54  and  _55
REMARK   22  A    between atoms: _58  and  _60
REMARK   23  A    between atoms: _60  and  _61
REMARK   24  A    between atoms: _60  and  _63
REMARK   25  A    between atoms: _63  and  _64
REMARK   26  A    between atoms: _67  and  _69
REMARK   27  A    between atoms: _69  and  _70
REMARK   28  A    between atoms: _69  and  _72
REMARK   29  A    between atoms: _72  and  _73
REMARK   30  A    between atoms: _73  and  _74
REMARK   31  A    between atoms: _76  and  _78
REMARK   32  A    between atoms: _78  and  _79
REMARK   33  A    between atoms: _78  and  _81
REMARK   34  A    between atoms: _81  and  _82
REMARK   35  A    between atoms: _82  and  _83
REMARK   36  A    between atoms: _86  and  _88
REMARK   37  A    between atoms: _88  and  _89
REMARK   38  A    between atoms: _88  and  _91
REMARK   39  A    between atoms: _91  and  _92
REMARK   40  A    between atoms: _95  and  _97
REMARK   41  A    between atoms: _97  and  _98
REMARK   42  A    between atoms: _97  and  _100
REMARK   43  A    between atoms: _100  and  _101
REMARK   44  A    between atoms: _104  and  _106
REMARK   45  A    between atoms: _106  and  _107
REMARK   46  A    between atoms: _106  and  _109
REMARK   47  A    between atoms: _109  and  _110
REMARK   48  A    between atoms: _112  and  _114
REMARK   49  A    between atoms: _114  and  _115
REMARK   50  A    between atoms: _114  and  _117
REMARK   51  A    between atoms: _117  and  _118
REMARK   52  A    between atoms: _123  and  _125
REMARK   53  A    between atoms: _125  and  _126
REMARK   54  A    between atoms: _125  and  _128
REMARK   55  A    between atoms: _128  and  _129
REMARK   56  A    between atoms: _131  and  _133
REMARK   57  A    between atoms: _133  and  _134
REMARK   58  A    between atoms: _133  and  _136
REMARK   59  A    between atoms: _136  and  _137
REMARK   60  A    between atoms: _139  and  _141
REMARK   61  A    between atoms: _141  and  _142
REMARK   62  A    between atoms: _141  and  _144
REMARK   63  A    between atoms: _144  and  _145
REMARK   64  A    between atoms: _148  and  _150
REMARK   65  A    between atoms: _150  and  _151
REMARK   66  A    between atoms: _154  and  _156
REMARK   67  A    between atoms: _156  and  _157
REMARK   68  A    between atoms: _156  and  _159
REMARK   69  A    between atoms: _159  and  _160
REMARK   70  A    between atoms: _163  and  _165
REMARK   71  A    between atoms: _165  and  _166
REMARK   72  A    between atoms: _165  and  _168
REMARK   73  A    between atoms: _168  and  _169
REMARK   74  A    between atoms: _169  and  _170
REMARK   75  A    between atoms: _170  and  _171
REMARK   76  A    between atoms: _171  and  _172
REMARK   77  A    between atoms: _176  and  _178
REMARK   78  A    between atoms: _178  and  _179
REMARK   79  A    between atoms: _178  and  _181
REMARK   80  A    between atoms: _181  and  _182
REMARK   81  A    between atoms: _185  and  _187
REMARK   82  A    between atoms: _187  and  _188
REMARK   83  A    between atoms: _187  and  _190
REMARK   84  A    between atoms: _190  and  _191
REMARK   85  A    between atoms: _194  and  _196
REMARK   86  A    between atoms: _196  and  _197
REMARK   87  A    between atoms: _196  and  _199
REMARK   88  A    between atoms: _202  and  _204
REMARK   89  A    between atoms: _204  and  _205
REMARK   90  A    between atoms: _204  and  _207
REMARK   91  A    between atoms: _207  and  _208
REMARK   92  A    between atoms: _211  and  _213
REMARK   93  A    between atoms: _213  and  _214
REMARK   94  A    between atoms: _213  and  _216
REMARK   95  A    between atoms: _216  and  _217
REMARK   96  A    between atoms: _220  and  _222
REMARK   97  A    between atoms: _222  and  _223
REMARK   98  A    between atoms: _225  and  _227
REMARK   99  A    between atoms: _227  and  _228
REMARK  100  A    between atoms: _227  and  _230
REMARK  101  A    between atoms: _230  and  _231
REMARK  102  A    between atoms: _234  and  _236
REMARK  103  A    between atoms: _236  and  _237
REMARK  104  A    between atoms: _239  and  _241
REMARK  105  A    between atoms: _241  and  _242
REMARK  106  A    between atoms: _241  and  _244
REMARK  107  A    between atoms: _244  and  _245
REMARK  108  A    between atoms: _245  and  _246
REMARK  109  A    between atoms: _248  and  _250
REMARK  110  A    between atoms: _250  and  _251
REMARK  111  A    between atoms: _250  and  _253
REMARK  112  A    between atoms: _253  and  _254
REMARK  113  A    between atoms: _257  and  _259
REMARK  114  A    between atoms: _259  and  _260
REMARK  115  A    between atoms: _259  and  _262
REMARK  116  A    between atoms: _262  and  _263
REMARK  117  A    between atoms: _263  and  _264
REMARK  118  A    between atoms: _264  and  _265
REMARK  119  A    between atoms: _265  and  _266
REMARK  120  A    between atoms: _270  and  _272
REMARK  121  A    between atoms: _272  and  _273
REMARK  122  A    between atoms: _276  and  _278
REMARK  123  A    between atoms: _278  and  _279
REMARK  124  A    between atoms: _278  and  _281
REMARK  125  A    between atoms: _281  and  _282
REMARK  126  A    between atoms: _285  and  _287
REMARK  127  A    between atoms: _287  and  _288
REMARK  128  A    between atoms: _287  and  _290
REMARK  129  A    between atoms: _290  and  _291
REMARK  130  A    between atoms: _294  and  _296
REMARK  131  A    between atoms: _296  and  _297
REMARK  132  A    between atoms: _296  and  _299
REMARK  133  A    between atoms: _299  and  _300
REMARK  134  A    between atoms: _303  and  _305
REMARK  135  A    between atoms: _305  and  _306
REMARK  136  A    between atoms: _305  and  _308
REMARK  137  A    between atoms: _308  and  _309
REMARK  138  A    between atoms: _314  and  _316
REMARK  139  A    between atoms: _316  and  _317
REMARK  140  A    between atoms: _316  and  _319
REMARK  141  A    between atoms: _319  and  _320
REMARK  142  A    between atoms: _325  and  _327
REMARK  143  A    between atoms: _327  and  _328
REMARK  144  A    between atoms: _327  and  _330
REMARK  145  A    between atoms: _330  and  _331
REMARK  146  A    between atoms: _334  and  _336
REMARK  147  A    between atoms: _336  and  _337
REMARK  148  A    between atoms: _339  and  _341
REMARK  149  A    between atoms: _341  and  _342
REMARK  150  A    between atoms: _341  and  _344
REMARK  151  A    between atoms: _344  and  _345
REMARK  152  A    between atoms: _348  and  _350
REMARK  153  A    between atoms: _350  and  _351
REMARK  154  A    between atoms: _350  and  _353
REMARK  155  A    between atoms: _353  and  _354
REMARK  156  A    between atoms: _357  and  _359
REMARK  157  A    between atoms: _359  and  _360
REMARK  158  A    between atoms: _363  and  _365
REMARK  159  A    between atoms: _365  and  _366
REMARK  160  A    between atoms: _365  and  _368
REMARK  161  A    between atoms: _368  and  _369
REMARK  162  A    between atoms: _369  and  _370
REMARK  163  A    between atoms: _370  and  _371
REMARK  164  A    between atoms: _371  and  _372
REMARK  165  A    between atoms: _376  and  _378
REMARK  166  A    between atoms: _378  and  _379
REMARK  167  A    between atoms: _378  and  _381
REMARK  168  A    between atoms: _381  and  _382
REMARK  169  A    between atoms: _384  and  _386
REMARK  170  A    between atoms: _386  and  _387
REMARK  171  A    between atoms: _389  and  _391
REMARK  172  A    between atoms: _391  and  _392
REMARK  173  A    between atoms: _391  and  _394
REMARK  174  A    between atoms: _394  and  _395
REMARK  175  A    between atoms: _398  and  _400
REMARK  176  A    between atoms: _400  and  _401
REMARK  177  A    between atoms: _400  and  _403
REMARK  178  A    between atoms: _403  and  _404
REMARK  179  A    between atoms: _410  and  _412
REMARK  180  A    between atoms: _412  and  _413
REMARK  181  A    between atoms: _415  and  _417
REMARK  182  A    between atoms: _417  and  _418
REMARK  183  A    between atoms: _417  and  _420
REMARK  184  A    between atoms: _423  and  _425
REMARK  185  A    between atoms: _425  and  _426
REMARK  186  A    between atoms: _428  and  _430
REMARK  187  A    between atoms: _430  and  _431
REMARK  188  A    between atoms: _430  and  _433
REMARK  189  A    between atoms: _433  and  _434
REMARK  190  A    between atoms: _440  and  _442
REMARK  191  A    between atoms: _442  and  _443
REMARK  192  A    between atoms: _442  and  _445
REMARK  193  A    between atoms: _445  and  _446
REMARK  194  A    between atoms: _451  and  _452
REMARK  195  A    between atoms: _454  and  _456
REMARK  196  A    between atoms: _456  and  _457
REMARK  197  A    between atoms: _456  and  _459
REMARK  198  A    between atoms: _459  and  _460
REMARK  199  A    between atoms: _462  and  _464
REMARK  200  A    between atoms: _464  and  _465
REMARK  201  A    between atoms: _468  and  _470
REMARK  202  A    between atoms: _470  and  _471
REMARK  203  A    between atoms: _470  and  _473
REMARK  204  A    between atoms: _473  and  _474
REMARK  205  A    between atoms: _479  and  _480
REMARK  206  A    between atoms: _482  and  _484
REMARK  207  A    between atoms: _484  and  _485
REMARK  208  A    between atoms: _484  and  _487
REMARK  209  A    between atoms: _490  and  _492
REMARK  210  A    between atoms: _492  and  _493
REMARK  211  A    between atoms: _492  and  _495
REMARK  212  A    between atoms: _495  and  _496
REMARK  213  A    between atoms: _499  and  _501
REMARK  214  A    between atoms: _501  and  _502
REMARK  215  A    between atoms: _501  and  _504
REMARK  216  A    between atoms: _507  and  _509
REMARK  217  A    between atoms: _509  and  _510
REMARK  218  A    between atoms: _509  and  _512
REMARK  219  A    between atoms: _512  and  _513
REMARK  220  A    between atoms: _516  and  _518
REMARK  221  A    between atoms: _518  and  _519
REMARK  222  A    between atoms: _518  and  _521
REMARK  223  A    between atoms: _521  and  _522
REMARK  224  A    between atoms: _525  and  _527
REMARK  225  A    between atoms: _527  and  _528
REMARK  226  A    between atoms: _527  and  _530
REMARK  227  A    between atoms: _530  and  _531
REMARK  228  A    between atoms: _531  and  _532
REMARK  229  A    between atoms: _532  and  _533
REMARK  230  A    between atoms: _533  and  _534
REMARK  231  A    between atoms: _538  and  _540
REMARK  232  A    between atoms: _540  and  _541
REMARK  233  A    between atoms: _540  and  _543
REMARK  234  A    between atoms: _543  and  _544
REMARK  235  A    between atoms: _549  and  _551
REMARK  236  A    between atoms: _551  and  _552
REMARK  237  A    between atoms: _555  and  _557
REMARK  238  A    between atoms: _557  and  _558
REMARK  239  A    between atoms: _557  and  _560
REMARK  240  A    between atoms: _560  and  _561
REMARK  241  A    between atoms: _571  and  _573
REMARK  242  A    between atoms: _573  and  _574
REMARK  243  A    between atoms: _573  and  _576
REMARK  244  A    between atoms: _576  and  _577
REMARK  245  A    between atoms: _577  and  _578
REMARK  246  A    between atoms: _581  and  _583
REMARK  247  A    between atoms: _583  and  _584
REMARK  248  A    between atoms: _583  and  _586
REMARK  249  A    between atoms: _586  and  _587
REMARK  250  A    between atoms: _589  and  _591
REMARK  251  A    between atoms: _591  and  _592
REMARK  252  A    between atoms: _591  and  _594
REMARK  253  A    between atoms: _594  and  _595
REMARK  254  A    between atoms: _601  and  _603
REMARK  255  A    between atoms: _603  and  _604
REMARK  256  A    between atoms: _603  and  _606
REMARK  257  A    between atoms: _606  and  _607
REMARK  258  A    between atoms: _610  and  _612
REMARK  259  A    between atoms: _612  and  _613
REMARK  260  A    between atoms: _612  and  _615
REMARK  261  A    between atoms: _618  and  _620
REMARK  262  A    between atoms: _620  and  _621
REMARK  263  A    between atoms: _620  and  _623
REMARK  264  A    between atoms: _623  and  _624
REMARK  265  A    between atoms: _624  and  _625
REMARK  266  A    between atoms: _627  and  _629
REMARK  267  A    between atoms: _629  and  _630
REMARK  268  A    between atoms: _632  and  _634
REMARK  269  A    between atoms: _634  and  _635
REMARK  270  A    between atoms: _634  and  _637
REMARK  271  A    between atoms: _637  and  _638
REMARK  272  A    between atoms: _641  and  _643
REMARK  273  A    between atoms: _643  and  _644
REMARK  274  A    between atoms: _643  and  _646
REMARK  275  A    between atoms: _646  and  _647
REMARK  276  A    between atoms: _647  and  _648
REMARK  277  A    between atoms: _648  and  _649
REMARK  278  A    between atoms: _649  and  _650
REMARK  279  A    between atoms: _654  and  _656
REMARK  280  A    between atoms: _656  and  _657
REMARK  281  A    between atoms: _656  and  _659
REMARK                            x       y       z     vdW  Elec       q    Type
REMARK                         _______ _______ _______ _____ _____    ______ ____
ROOT
ATOM      1  O   HOH     1      17.398   9.336  29.230  0.00  0.00    +0.000 OA
ENDROOT
TORSDOF 0
REMARK  Name = ../refined-set-2016/2yki/2yki_pocket.pdb
REMARK  281 active torsions:
REMARK  status: ('A' for Active; 'I' for Inactive)
REMARK    1  A    between atoms: _1  and  _3
REMARK    2  A    between atoms: _3  and  _4
REMARK    3  A    between atoms: _3  and  _6
REMARK    4  A    between atoms: _6  and  _7
REMARK    5  A    between atoms: _13  and  _15
REMARK    6  A    between atoms: _15  and  _16
REMARK    7  A    between atoms: _19  and  _21
REMARK    8  A    between atoms: _21  and  _22
REMARK    9  A    between atoms: _21  and  _24
REMARK   10  A    between atoms: _24  and  _25
REMARK   11  A    between atoms: _31  and  _33
REMARK   12  A    between atoms: _33  and  _34
REMARK   13  A    between atoms: _33  and  _36
REMARK   14  A    between atoms: _36  and  _37
REMARK   15  A    between atoms: _37  and  _38
REMARK   16  A    between atoms: _43  and  _45
REMARK   17  A    between atoms: _45  and  _46
REMARK   18  A    between atoms: _45  and  _48
REMARK   19  A    between atoms: _48  and  _49
REMARK   20  A    between atoms: _52  and  _54
REMARK   21  A    between atoms: _54  and  _55
REMARK   22  A    between atoms: _58  and  _60
REMARK   23  A    between atoms: _60  and  _61
REMARK   24  A    between atoms: _60  and  _63
REMARK   25  A    between atoms: _63  and  _64
REMARK   26  A    between atoms: _67  and  _69
REMARK   27  A    between atoms: _69  and  _70
REMARK   28  A    between atoms: _69  and  _72
REMARK   29  A    between atoms: _72  and  _73
REMARK   30  A    between atoms: _73  and  _74
REMARK   31  A    between atoms: _76  and  _78
REMARK   32  A    between atoms: _78  and  _79
REMARK   33  A    between atoms: _78  and  _81
REMARK   34  A    between atoms: _81  and  _82
REMARK   35  A    between atoms: _82  and  _83
REMARK   36  A    between atoms: _86  and  _88
REMARK   37  A    between atoms: _88  and  _89
REMARK   38  A    between atoms: _88  and  _91
REMARK   39  A    between atoms: _91  and  _92
REMARK   40  A    between atoms: _95  and  _97
REMARK   41  A    between atoms: _97  and  _98
REMARK   42  A    between atoms: _97  and  _100
REMARK   43  A    between atoms: _100  and  _101
REMARK   44  A    between atoms: _104  and  _106
REMARK   45  A    between atoms: _106  and  _107
REMARK   46  A    between atoms: _106  and  _109
REMARK   47  A    between atoms: _109  and  _110
REMARK   48  A    between atoms: _112  and  _114
REMARK   49  A    between atoms: _114  and  _115
REMARK   50  A    between atoms: _114  and  _117
REMARK   51  A    between atoms: _117  and  _118
REMARK   52  A    between atoms: _123  and  _125
REMARK   53  A    between atoms: _125  and  _126
REMARK   54  A    between atoms: _125  and  _128
REMARK   55  A    between atoms: _128  and  _129
REMARK   56  A    between atoms: _131  and  _133
REMARK   57  A    between atoms: _133  and  _134
REMARK   58  A    between atoms: _133  and  _136
REMARK   59  A    between atoms: _136  and  _137
REMARK   60  A    between atoms: _139  and  _141
REMARK   61  A    between atoms: _141  and  _142
REMARK   62  A    between atoms: _141  and  _144
REMARK   63  A    between atoms: _144  and  _145
REMARK   64  A    between atoms: _148  and  _150
REMARK   65  A    between atoms: _150  and  _151
REMARK   66  A    between atoms: _154  and  _156
REMARK   67  A    between atoms: _156  and  _157
REMARK   68  A    between atoms: _156  and  _159
REMARK   69  A    between atoms: _159  and  _160
REMARK   70  A    between atoms: _163  and  _165
REMARK   71  A    between atoms: _165  and  _166
REMARK   72  A    between atoms: _165  and  _168
REMARK   73  A    between atoms: _168  and  _169
REMARK   74  A    between atoms: _169  and  _170
REMARK   75  A    between atoms: _170  and  _171
REMARK   76  A    between atoms: _171  and  _172
REMARK   77  A    between atoms: _176  and  _178
REMARK   78  A    between atoms: _178  and  _179
REMARK   79  A    between atoms: _178  and  _181
REMARK   80  A    between atoms: _181  and  _182
REMARK   81  A    between atoms: _185  and  _187
REMARK   82  A    between atoms: _187  and  _188
REMARK   83  A    between atoms: _187  and  _190
REMARK   84  A    between atoms: _190  and  _191
REMARK   85  A    between atoms: _194  and  _196
REMARK   86  A    between atoms: _196  and  _197
REMARK   87  A    between atoms: _196  and  _199
REMARK   88  A    between atoms: _202  and  _204
REMARK   89  A    between atoms: _204  and  _205
REMARK   90  A    between atoms: _204  and  _207
REMARK   91  A    between atoms: _207  and  _208
REMARK   92  A    between atoms: _211  and  _213
REMARK   93  A    between atoms: _213  and  _214
REMARK   94  A    between atoms: _213  and  _216
REMARK   95  A    between atoms: _216  and  _217
REMARK   96  A    between atoms: _220  and  _222
REMARK   97  A    between atoms: _222  and  _223
REMARK   98  A    between atoms: _225  and  _227
REMARK   99  A    between atoms: _227  and  _228
REMARK  100  A    between atoms: _227  and  _230
REMARK  101  A    between atoms: _230  and  _231
REMARK  102  A    between atoms: _234  and  _236
REMARK  103  A    between atoms: _236  and  _237
REMARK  104  A    between atoms: _239  and  _241
REMARK  105  A    between atoms: _241  and  _242
REMARK  106  A    between atoms: _241  and  _244
REMARK  107  A    between atoms: _244  and  _245
REMARK  108  A    between atoms: _245  and  _246
REMARK  109  A    between atoms: _248  and  _250
REMARK  110  A    between atoms: _250  and  _251
REMARK  111  A    between atoms: _250  and  _253
REMARK  112  A    between atoms: _253  and  _254
REMARK  113  A    between atoms: _257  and  _259
REMARK  114  A    between atoms: _259  and  _260
REMARK  115  A    between atoms: _259  and  _262
REMARK  116  A    between atoms: _262  and  _263
REMARK  117  A    between atoms: _263  and  _264
REMARK  118  A    between atoms: _264  and  _265
REMARK  119  A    between atoms: _265  and  _266
REMARK  120  A    between atoms: _270  and  _272
REMARK  121  A    between atoms: _272  and  _273
REMARK  122  A    between atoms: _276  and  _278
REMARK  123  A    between atoms: _278  and  _279
REMARK  124  A    between atoms: _278  and  _281
REMARK  125  A    between atoms: _281  and  _282
REMARK  126  A    between atoms: _285  and  _287
REMARK  127  A    between atoms: _287  and  _288
REMARK  128  A    between atoms: _287  and  _290
REMARK  129  A    between atoms: _290  and  _291
REMARK  130  A    between atoms: _294  and  _296
REMARK  131  A    between atoms: _296  and  _297
REMARK  132  A    between atoms: _296  and  _299
REMARK  133  A    between atoms: _299  and  _300
REMARK  134  A    between atoms: _303  and  _305
REMARK  135  A    between atoms: _305  and  _306
REMARK  136  A    between atoms: _305  and  _308
REMARK  137  A    between atoms: _308  and  _309
REMARK  138  A    between atoms: _314  and  _316
REMARK  139  A    between atoms: _316  and  _317
REMARK  140  A    between atoms: _316  and  _319
REMARK  141  A    between atoms: _319  and  _320
REMARK  142  A    between atoms: _325  and  _327
REMARK  143  A    between atoms: _327  and  _328
REMARK  144  A    between atoms: _327  and  _330
REMARK  145  A    between atoms: _330  and  _331
REMARK  146  A    between atoms: _334  and  _336
REMARK  147  A    between atoms: _336  and  _337
REMARK  148  A    between atoms: _339  and  _341
REMARK  149  A    between atoms: _341  and  _342
REMARK  150  A    between atoms: _341  and  _344
REMARK  151  A    between atoms: _344  and  _345
REMARK  152  A    between atoms: _348  and  _350
REMARK  153  A    between atoms: _350  and  _351
REMARK  154  A    between atoms: _350  and  _353
REMARK  155  A    between atoms: _353  and  _354
REMARK  156  A    between atoms: _357  and  _359
REMARK  157  A    between atoms: _359  and  _360
REMARK  158  A    between atoms: _363  and  _365
REMARK  159  A    between atoms: _365  and  _366
REMARK  160  A    between atoms: _365  and  _368
REMARK  161  A    between atoms: _368  and  _369
REMARK  162  A    between atoms: _369  and  _370
REMARK  163  A    between atoms: _370  and  _371
REMARK  164  A    between atoms: _371  and  _372
REMARK  165  A    between atoms: _376  and  _378
REMARK  166  A    between atoms: _378  and  _379
REMARK  167  A    between atoms: _378  and  _381
REMARK  168  A    between atoms: _381  and  _382
REMARK  169  A    between atoms: _384  and  _386
REMARK  170  A    between atoms: _386  and  _387
REMARK  171  A    between atoms: _389  and  _391
REMARK  172  A    between atoms: _391  and  _392
REMARK  173  A    between atoms: _391  and  _394
REMARK  174  A    between atoms: _394  and  _395
REMARK  175  A    between atoms: _398  and  _400
REMARK  176  A    between atoms: _400  and  _401
REMARK  177  A    between atoms: _400  and  _403
REMARK  178  A    between atoms: _403  and  _404
REMARK  179  A    between atoms: _410  and  _412
REMARK  180  A    between atoms: _412  and  _413
REMARK  181  A    between atoms: _415  and  _417
REMARK  182  A    between atoms: _417  and  _418
REMARK  183  A    between atoms: _417  and  _420
REMARK  184  A    between atoms: _423  and  _425
REMARK  185  A    between atoms: _425  and  _426
REMARK  186  A    between atoms: _428  and  _430
REMARK  187  A    between atoms: _430  and  _431
REMARK  188  A    between atoms: _430  and  _433
REMARK  189  A    between atoms: _433  and  _434
REMARK  190  A    between atoms: _440  and  _442
REMARK  191  A    between atoms: _442  and  _443
REMARK  192  A    between atoms: _442  and  _445
REMARK  193  A    between atoms: _445  and  _446
REMARK  194  A    between atoms: _451  and  _452
REMARK  195  A    between atoms: _454  and  _456
REMARK  196  A    between atoms: _456  and  _457
REMARK  197  A    between atoms: _456  and  _459
REMARK  198  A    between atoms: _459  and  _460
REMARK  199  A    between atoms: _462  and  _464
REMARK  200  A    between atoms: _464  and  _465
REMARK  201  A    between atoms: _468  and  _470
REMARK  202  A    between atoms: _470  and  _471
REMARK  203  A    between atoms: _470  and  _473
REMARK  204  A    between atoms: _473  and  _474
REMARK  205  A    between atoms: _479  and  _480
REMARK  206  A    between atoms: _482  and  _484
REMARK  207  A    between atoms: _484  and  _485
REMARK  208  A    between atoms: _484  and  _487
REMARK  209  A    between atoms: _490  and  _492
REMARK  210  A    between atoms: _492  and  _493
REMARK  211  A    between atoms: _492  and  _495
REMARK  212  A    between atoms: _495  and  _496
REMARK  213  A    between atoms: _499  and  _501
REMARK  214  A    between atoms: _501  and  _502
REMARK  215  A    between atoms: _501  and  _504
REMARK  216  A    between atoms: _507  and  _509
REMARK  217  A    between atoms: _509  and  _510
REMARK  218  A    between atoms: _509  and  _512
REMARK  219  A    between atoms: _512  and  _513
REMARK  220  A    between atoms: _516  and  _518
REMARK  221  A    between atoms: _518  and  _519
REMARK  222  A    between atoms: _518  and  _521
REMARK  223  A    between atoms: _521  and  _522
REMARK  224  A    between atoms: _525  and  _527
REMARK  225  A    between atoms: _527  and  _528
REMARK  226  A    between atoms: _527  and  _530
REMARK  227  A    between atoms: _530  and  _531
REMARK  228  A    between atoms: _531  and  _532
REMARK  229  A    between atoms: _532  and  _533
REMARK  230  A    between atoms: _533  and  _534
REMARK  231  A    between atoms: _538  and  _540
REMARK  232  A    between atoms: _540  and  _541
REMARK  233  A    between atoms: _540  and  _543
REMARK  234  A    between atoms: _543  and  _544
REMARK  235  A    between atoms: _549  and  _551
REMARK  236  A    between atoms: _551  and  _552
REMARK  237  A    between atoms: _555  and  _557
REMARK  238  A    between atoms: _557  and  _558
REMARK  239  A    between atoms: _557  and  _560
REMARK  240  A    between atoms: _560  and  _561
REMARK  241  A    between atoms: _571  and  _573
REMARK  242  A    between atoms: _573  and  _574
REMARK  243  A    between atoms: _573  and  _576
REMARK  244  A    between atoms: _576  and  _577
REMARK  245  A    between atoms: _577  and  _578
REMARK  246  A    between atoms: _581  and  _583
REMARK  247  A    between atoms: _583  and  _584
REMARK  248  A    between atoms: _583  and  _586
REMARK  249  A    between atoms: _586  and  _587
REMARK  250  A    between atoms: _589  and  _591
REMARK  251  A    between atoms: _591  and  _592
REMARK  252  A    between atoms: _591  and  _594
REMARK  253  A    between atoms: _594  and  _595
REMARK  254  A    between atoms: _601  and  _603
REMARK  255  A    between atoms: _603  and  _604
REMARK  256  A    between atoms: _603  and  _606
REMARK  257  A    between atoms: _606  and  _607
REMARK  258  A    between atoms: _610  and  _612
REMARK  259  A    between atoms: _612  and  _613
REMARK  260  A    between atoms: _612  and  _615
REMARK  261  A    between atoms: _618  and  _620
REMARK  262  A    between atoms: _620  and  _621
REMARK  263  A    between atoms: _620  and  _623
REMARK  264  A    between atoms: _623  and  _624
REMARK  265  A    between atoms: _624  and  _625
REMARK  266  A    between atoms: _627  and  _629
REMARK  267  A    between atoms: _629  and  _630
REMARK  268  A    between atoms: _632  and  _634
REMARK  269  A    between atoms: _634  and  _635
REMARK  270  A    between atoms: _634  and  _637
REMARK  271  A    between atoms: _637  and  _638
REMARK  272  A    between atoms: _641  and  _643
REMARK  273  A    between atoms: _643  and  _644
REMARK  274  A    between atoms: _643  and  _646
REMARK  275  A    between atoms: _646  and  _647
REMARK  276  A    between atoms: _647  and  _648
REMARK  277  A    between atoms: _648  and  _649
REMARK  278  A    between atoms: _649  and  _650
REMARK  279  A    between atoms: _654  and  _656
REMARK  280  A    between atoms: _656  and  _657
REMARK  281  A    between atoms: _656  and  _659
REMARK                            x       y       z     vdW  Elec       q    Type
REMARK                         _______ _______ _______ _____ _____    ______ ____
ROOT
ATOM      1  O   HOH     1      17.750  11.754  23.213  0.00  0.00    +0.000 OA
ENDROOT
TORSDOF 0
REMARK  Name = ../refined-set-2016/2yki/2yki_pocket.pdb
REMARK  281 active torsions:
REMARK  status: ('A' for Active; 'I' for Inactive)
REMARK    1  A    between atoms: _1  and  _3
REMARK    2  A    between atoms: _3  and  _4
REMARK    3  A    between atoms: _3  and  _6
REMARK    4  A    between atoms: _6  and  _7
REMARK    5  A    between atoms: _13  and  _15
REMARK    6  A    between atoms: _15  and  _16
REMARK    7  A    between atoms: _19  and  _21
REMARK    8  A    between atoms: _21  and  _22
REMARK    9  A    between atoms: _21  and  _24
REMARK   10  A    between atoms: _24  and  _25
REMARK   11  A    between atoms: _31  and  _33
REMARK   12  A    between atoms: _33  and  _34
REMARK   13  A    between atoms: _33  and  _36
REMARK   14  A    between atoms: _36  and  _37
REMARK   15  A    between atoms: _37  and  _38
REMARK   16  A    between atoms: _43  and  _45
REMARK   17  A    between atoms: _45  and  _46
REMARK   18  A    between atoms: _45  and  _48
REMARK   19  A    between atoms: _48  and  _49
REMARK   20  A    between atoms: _52  and  _54
REMARK   21  A    between atoms: _54  and  _55
REMARK   22  A    between atoms: _58  and  _60
REMARK   23  A    between atoms: _60  and  _61
REMARK   24  A    between atoms: _60  and  _63
REMARK   25  A    between atoms: _63  and  _64
REMARK   26  A    between atoms: _67  and  _69
REMARK   27  A    between atoms: _69  and  _70
REMARK   28  A    between atoms: _69  and  _72
REMARK   29  A    between atoms: _72  and  _73
REMARK   30  A    between atoms: _73  and  _74
REMARK   31  A    between atoms: _76  and  _78
REMARK   32  A    between atoms: _78  and  _79
REMARK   33  A    between atoms: _78  and  _81
REMARK   34  A    between atoms: _81  and  _82
REMARK   35  A    between atoms: _82  and  _83
REMARK   36  A    between atoms: _86  and  _88
REMARK   37  A    between atoms: _88  and  _89
REMARK   38  A    between atoms: _88  and  _91
REMARK   39  A    between atoms: _91  and  _92
REMARK   40  A    between atoms: _95  and  _97
REMARK   41  A    between atoms: _97  and  _98
REMARK   42  A    between atoms: _97  and  _100
REMARK   43  A    between atoms: _100  and  _101
REMARK   44  A    between atoms: _104  and  _106
REMARK   45  A    between atoms: _106  and  _107
REMARK   46  A    between atoms: _106  and  _109
REMARK   47  A    between atoms: _109  and  _110
REMARK   48  A    between atoms: _112  and  _114
REMARK   49  A    between atoms: _114  and  _115
REMARK   50  A    between atoms: _114  and  _117
REMARK   51  A    between atoms: _117  and  _118
REMARK   52  A    between atoms: _123  and  _125
REMARK   53  A    between atoms: _125  and  _126
REMARK   54  A    between atoms: _125  and  _128
REMARK   55  A    between atoms: _128  and  _129
REMARK   56  A    between atoms: _131  and  _133
REMARK   57  A    between atoms: _133  and  _134
REMARK   58  A    between atoms: _133  and  _136
REMARK   59  A    between atoms: _136  and  _137
REMARK   60  A    between atoms: _139  and  _141
REMARK   61  A    between atoms: _141  and  _142
REMARK   62  A    between atoms: _141  and  _144
REMARK   63  A    between atoms: _144  and  _145
REMARK   64  A    between atoms: _148  and  _150
REMARK   65  A    between atoms: _150  and  _151
REMARK   66  A    between atoms: _154  and  _156
REMARK   67  A    between atoms: _156  and  _157
REMARK   68  A    between atoms: _156  and  _159
REMARK   69  A    between atoms: _159  and  _160
REMARK   70  A    between atoms: _163  and  _165
REMARK   71  A    between atoms: _165  and  _166
REMARK   72  A    between atoms: _165  and  _168
REMARK   73  A    between atoms: _168  and  _169
REMARK   74  A    between atoms: _169  and  _170
REMARK   75  A    between atoms: _170  and  _171
REMARK   76  A    between atoms: _171  and  _172
REMARK   77  A    between atoms: _176  and  _178
REMARK   78  A    between atoms: _178  and  _179
REMARK   79  A    between atoms: _178  and  _181
REMARK   80  A    between atoms: _181  and  _182
REMARK   81  A    between atoms: _185  and  _187
REMARK   82  A    between atoms: _187  and  _188
REMARK   83  A    between atoms: _187  and  _190
REMARK   84  A    between atoms: _190  and  _191
REMARK   85  A    between atoms: _194  and  _196
REMARK   86  A    between atoms: _196  and  _197
REMARK   87  A    between atoms: _196  and  _199
REMARK   88  A    between atoms: _202  and  _204
REMARK   89  A    between atoms: _204  and  _205
REMARK   90  A    between atoms: _204  and  _207
REMARK   91  A    between atoms: _207  and  _208
REMARK   92  A    between atoms: _211  and  _213
REMARK   93  A    between atoms: _213  and  _214
REMARK   94  A    between atoms: _213  and  _216
REMARK   95  A    between atoms: _216  and  _217
REMARK   96  A    between atoms: _220  and  _222
REMARK   97  A    between atoms: _222  and  _223
REMARK   98  A    between atoms: _225  and  _227
REMARK   99  A    between atoms: _227  and  _228
REMARK  100  A    between atoms: _227  and  _230
REMARK  101  A    between atoms: _230  and  _231
REMARK  102  A    between atoms: _234  and  _236
REMARK  103  A    between atoms: _236  and  _237
REMARK  104  A    between atoms: _239  and  _241
REMARK  105  A    between atoms: _241  and  _242
REMARK  106  A    between atoms: _241  and  _244
REMARK  107  A    between atoms: _244  and  _245
REMARK  108  A    between atoms: _245  and  _246
REMARK  109  A    between atoms: _248  and  _250
REMARK  110  A    between atoms: _250  and  _251
REMARK  111  A    between atoms: _250  and  _253
REMARK  112  A    between atoms: _253  and  _254
REMARK  113  A    between atoms: _257  and  _259
REMARK  114  A    between atoms: _259  and  _260
REMARK  115  A    between atoms: _259  and  _262
REMARK  116  A    between atoms: _262  and  _263
REMARK  117  A    between atoms: _263  and  _264
REMARK  118  A    between atoms: _264  and  _265
REMARK  119  A    between atoms: _265  and  _266
REMARK  120  A    between atoms: _270  and  _272
REMARK  121  A    between atoms: _272  and  _273
REMARK  122  A    between atoms: _276  and  _278
REMARK  123  A    between atoms: _278  and  _279
REMARK  124  A    between atoms: _278  and  _281
REMARK  125  A    between atoms: _281  and  _282
REMARK  126  A    between atoms: _285  and  _287
REMARK  127  A    between atoms: _287  and  _288
REMARK  128  A    between atoms: _287  and  _290
REMARK  129  A    between atoms: _290  and  _291
REMARK  130  A    between atoms: _294  and  _296
REMARK  131  A    between atoms: _296  and  _297
REMARK  132  A    between atoms: _296  and  _299
REMARK  133  A    between atoms: _299  and  _300
REMARK  134  A    between atoms: _303  and  _305
REMARK  135  A    between atoms: _305  and  _306
REMARK  136  A    between atoms: _305  and  _308
REMARK  137  A    between atoms: _308  and  _309
REMARK  138  A    between atoms: _314  and  _316
REMARK  139  A    between atoms: _316  and  _317
REMARK  140  A    between atoms: _316  and  _319
REMARK  141  A    between atoms: _319  and  _320
REMARK  142  A    between atoms: _325  and  _327
REMARK  143  A    between atoms: _327  and  _328
REMARK  144  A    between atoms: _327  and  _330
REMARK  145  A    between atoms: _330  and  _331
REMARK  146  A    between atoms: _334  and  _336
REMARK  147  A    between atoms: _336  and  _337
REMARK  148  A    between atoms: _339  and  _341
REMARK  149  A    between atoms: _341  and  _342
REMARK  150  A    between atoms: _341  and  _344
REMARK  151  A    between atoms: _344  and  _345
REMARK  152  A    between atoms: _348  and  _350
REMARK  153  A    between atoms: _350  and  _351
REMARK  154  A    between atoms: _350  and  _353
REMARK  155  A    between atoms: _353  and  _354
REMARK  156  A    between atoms: _357  and  _359
REMARK  157  A    between atoms: _359  and  _360
REMARK  158  A    between atoms: _363  and  _365
REMARK  159  A    between atoms: _365  and  _366
REMARK  160  A    between atoms: _365  and  _368
REMARK  161  A    between atoms: _368  and  _369
REMARK  162  A    between atoms: _369  and  _370
REMARK  163  A    between atoms: _370  and  _371
REMARK  164  A    between atoms: _371  and  _372
REMARK  165  A    between atoms: _376  and  _378
REMARK  166  A    between atoms: _378  and  _379
REMARK  167  A    between atoms: _378  and  _381
REMARK  168  A    between atoms: _381  and  _382
REMARK  169  A    between atoms: _384  and  _386
REMARK  170  A    between atoms: _386  and  _387
REMARK  171  A    between atoms: _389  and  _391
REMARK  172  A    between atoms: _391  and  _392
REMARK  173  A    between atoms: _391  and  _394
REMARK  174  A    between atoms: _394  and  _395
REMARK  175  A    between atoms: _398  and  _400
REMARK  176  A    between atoms: _400  and  _401
REMARK  177  A    between atoms: _400  and  _403
REMARK  178  A    between atoms: _403  and  _404
REMARK  179  A    between atoms: _410  and  _412
REMARK  180  A    between atoms: _412  and  _413
REMARK  181  A    between atoms: _415  and  _417
REMARK  182  A    between atoms: _417  and  _418
REMARK  183  A    between atoms: _417  and  _420
REMARK  184  A    between atoms: _423  and  _425
REMARK  185  A    between atoms: _425  and  _426
REMARK  186  A    between atoms: _428  and  _430
REMARK  187  A    between atoms: _430  and  _431
REMARK  188  A    between atoms: _430  and  _433
REMARK  189  A    between atoms: _433  and  _434
REMARK  190  A    between atoms: _440  and  _442
REMARK  191  A    between atoms: _442  and  _443
REMARK  192  A    between atoms: _442  and  _445
REMARK  193  A    between atoms: _445  and  _446
REMARK  194  A    between atoms: _451  and  _452
REMARK  195  A    between atoms: _454  and  _456
REMARK  196  A    between atoms: _456  and  _457
REMARK  197  A    between atoms: _456  and  _459
REMARK  198  A    between atoms: _459  and  _460
REMARK  199  A    between atoms: _462  and  _464
REMARK  200  A    between atoms: _464  and  _465
REMARK  201  A    between atoms: _468  and  _470
REMARK  202  A    between atoms: _470  and  _471
REMARK  203  A    between atoms: _470  and  _473
REMARK  204  A    between atoms: _473  and  _474
REMARK  205  A    between atoms: _479  and  _480
REMARK  206  A    between atoms: _482  and  _484
REMARK  207  A    between atoms: _484  and  _485
REMARK  208  A    between atoms: _484  and  _487
REMARK  209  A    between atoms: _490  and  _492
REMARK  210  A    between atoms: _492  and  _493
REMARK  211  A    between atoms: _492  and  _495
REMARK  212  A    between atoms: _495  and  _496
REMARK  213  A    between atoms: _499  and  _501
REMARK  214  A    between atoms: _501  and  _502
REMARK  215  A    between atoms: _501  and  _504
REMARK  216  A    between atoms: _507  and  _509
REMARK  217  A    between atoms: _509  and  _510
REMARK  218  A    between atoms: _509  and  _512
REMARK  219  A    between atoms: _512  and  _513
REMARK  220  A    between atoms: _516  and  _518
REMARK  221  A    between atoms: _518  and  _519
REMARK  222  A    between atoms: _518  and  _521
REMARK  223  A    between atoms: _521  and  _522
REMARK  224  A    between atoms: _525  and  _527
REMARK  225  A    between atoms: _527  and  _528
REMARK  226  A    between atoms: _527  and  _530
REMARK  227  A    between atoms: _530  and  _531
REMARK  228  A    between atoms: _531  and  _532
REMARK  229  A    between atoms: _532  and  _533
REMARK  230  A    between atoms: _533  and  _534
REMARK  231  A    between atoms: _538  and  _540
REMARK  232  A    between atoms: _540  and  _541
REMARK  233  A    between atoms: _540  and  _543
REMARK  234  A    between atoms: _543  and  _544
REMARK  235  A    between atoms: _549  and  _551
REMARK  236  A    between atoms: _551  and  _552
REMARK  237  A    between atoms: _555  and  _557
REMARK  238  A    between atoms: _557  and  _558
REMARK  239  A    between atoms: _557  and  _560
REMARK  240  A    between atoms: _560  and  _561
REMARK  241  A    between atoms: _571  and  _573
REMARK  242  A    between atoms: _573  and  _574
REMARK  243  A    between atoms: _573  and  _576
REMARK  244  A    between atoms: _576  and  _577
REMARK  245  A    between atoms: _577  and  _578
REMARK  246  A    between atoms: _581  and  _583
REMARK  247  A    between atoms: _583  and  _584
REMARK  248  A    between atoms: _583  and  _586
REMARK  249  A    between atoms: _586  and  _587
REMARK  250  A    between atoms: _589  and  _591
REMARK  251  A    between atoms: _591  and  _592
REMARK  252  A    between atoms: _591  and  _594
REMARK  253  A    between atoms: _594  and  _595
REMARK  254  A    between atoms: _601  and  _603
REMARK  255  A    between atoms: _603  and  _604
REMARK  256  A    between atoms: _603  and  _606
REMARK  257  A    between atoms: _606  and  _607
REMARK  258  A    between atoms: _610  and  _612
REMARK  259  A    between atoms: _612  and  _613
REMARK  260  A    between atoms: _612  and  _615
REMARK  261  A    between atoms: _618  and  _620
REMARK  262  A    between atoms: _620  and  _621
REMARK  263  A    between atoms: _620  and  _623
REMARK  264  A    between atoms: _623  and  _624
REMARK  265  A    between atoms: _624  and  _625
REMARK  266  A    between atoms: _627  and  _629
REMARK  267  A    between atoms: _629  and  _630
REMARK  268  A    between atoms: _632  and  _634
REMARK  269  A    between atoms: _634  and  _635
REMARK  270  A    between atoms: _634  and  _637
REMARK  271  A    between atoms: _637  and  _638
REMARK  272  A    between atoms: _641  and  _643
REMARK  273  A    between atoms: _643  and  _644
REMARK  274  A    between atoms: _643  and  _646
REMARK  275  A    between atoms: _646  and  _647
REMARK  276  A    between atoms: _647  and  _648
REMARK  277  A    between atoms: _648  and  _649
REMARK  278  A    between atoms: _649  and  _650
REMARK  279  A    between atoms: _654  and  _656
REMARK  280  A    between atoms: _656  and  _657
REMARK  281  A    between atoms: _656  and  _659
REMARK                            x       y       z     vdW  Elec       q    Type
REMARK                         _______ _______ _______ _____ _____    ______ ____
ROOT
ATOM      1  O   HOH     1       2.533   7.858  17.033  0.00  0.00    +0.000 OA
ENDROOT
TORSDOF 0
REMARK  Name = ../refined-set-2016/2yki/2yki_pocket.pdb
REMARK  281 active torsions:
REMARK  status: ('A' for Active; 'I' for Inactive)
REMARK    1  A    between atoms: _1  and  _3
REMARK    2  A    between atoms: _3  and  _4
REMARK    3  A    between atoms: _3  and  _6
REMARK    4  A    between atoms: _6  and  _7
REMARK    5  A    between atoms: _13  and  _15
REMARK    6  A    between atoms: _15  and  _16
REMARK    7  A    between atoms: _19  and  _21
REMARK    8  A    between atoms: _21  and  _22
REMARK    9  A    between atoms: _21  and  _24
REMARK   10  A    between atoms: _24  and  _25
REMARK   11  A    between atoms: _31  and  _33
REMARK   12  A    between atoms: _33  and  _34
REMARK   13  A    between atoms: _33  and  _36
REMARK   14  A    between atoms: _36  and  _37
REMARK   15  A    between atoms: _37  and  _38
REMARK   16  A    between atoms: _43  and  _45
REMARK   17  A    between atoms: _45  and  _46
REMARK   18  A    between atoms: _45  and  _48
REMARK   19  A    between atoms: _48  and  _49
REMARK   20  A    between atoms: _52  and  _54
REMARK   21  A    between atoms: _54  and  _55
REMARK   22  A    between atoms: _58  and  _60
REMARK   23  A    between atoms: _60  and  _61
REMARK   24  A    between atoms: _60  and  _63
REMARK   25  A    between atoms: _63  and  _64
REMARK   26  A    between atoms: _67  and  _69
REMARK   27  A    between atoms: _69  and  _70
REMARK   28  A    between atoms: _69  and  _72
REMARK   29  A    between atoms: _72  and  _73
REMARK   30  A    between atoms: _73  and  _74
REMARK   31  A    between atoms: _76  and  _78
REMARK   32  A    between atoms: _78  and  _79
REMARK   33  A    between atoms: _78  and  _81
REMARK   34  A    between atoms: _81  and  _82
REMARK   35  A    between atoms: _82  and  _83
REMARK   36  A    between atoms: _86  and  _88
REMARK   37  A    between atoms: _88  and  _89
REMARK   38  A    between atoms: _88  and  _91
REMARK   39  A    between atoms: _91  and  _92
REMARK   40  A    between atoms: _95  and  _97
REMARK   41  A    between atoms: _97  and  _98
REMARK   42  A    between atoms: _97  and  _100
REMARK   43  A    between atoms: _100  and  _101
REMARK   44  A    between atoms: _104  and  _106
REMARK   45  A    between atoms: _106  and  _107
REMARK   46  A    between atoms: _106  and  _109
REMARK   47  A    between atoms: _109  and  _110
REMARK   48  A    between atoms: _112  and  _114
REMARK   49  A    between atoms: _114  and  _115
REMARK   50  A    between atoms: _114  and  _117
REMARK   51  A    between atoms: _117  and  _118
REMARK   52  A    between atoms: _123  and  _125
REMARK   53  A    between atoms: _125  and  _126
REMARK   54  A    between atoms: _125  and  _128
REMARK   55  A    between atoms: _128  and  _129
REMARK   56  A    between atoms: _131  and  _133
REMARK   57  A    between atoms: _133  and  _134
REMARK   58  A    between atoms: _133  and  _136
REMARK   59  A    between atoms: _136  and  _137
REMARK   60  A    between atoms: _139  and  _141
REMARK   61  A    between atoms: _141  and  _142
REMARK   62  A    between atoms: _141  and  _144
REMARK   63  A    between atoms: _144  and  _145
REMARK   64  A    between atoms: _148  and  _150
REMARK   65  A    between atoms: _150  and  _151
REMARK   66  A    between atoms: _154  and  _156
REMARK   67  A    between atoms: _156  and  _157
REMARK   68  A    between atoms: _156  and  _159
REMARK   69  A    between atoms: _159  and  _160
REMARK   70  A    between atoms: _163  and  _165
REMARK   71  A    between atoms: _165  and  _166
REMARK   72  A    between atoms: _165  and  _168
REMARK   73  A    between atoms: _168  and  _169
REMARK   74  A    between atoms: _169  and  _170
REMARK   75  A    between atoms: _170  and  _171
REMARK   76  A    between atoms: _171  and  _172
REMARK   77  A    between atoms: _176  and  _178
REMARK   78  A    between atoms: _178  and  _179
REMARK   79  A    between atoms: _178  and  _181
REMARK   80  A    between atoms: _181  and  _182
REMARK   81  A    between atoms: _185  and  _187
REMARK   82  A    between atoms: _187  and  _188
REMARK   83  A    between atoms: _187  and  _190
REMARK   84  A    between atoms: _190  and  _191
REMARK   85  A    between atoms: _194  and  _196
REMARK   86  A    between atoms: _196  and  _197
REMARK   87  A    between atoms: _196  and  _199
REMARK   88  A    between atoms: _202  and  _204
REMARK   89  A    between atoms: _204  and  _205
REMARK   90  A    between atoms: _204  and  _207
REMARK   91  A    between atoms: _207  and  _208
REMARK   92  A    between atoms: _211  and  _213
REMARK   93  A    between atoms: _213  and  _214
REMARK   94  A    between atoms: _213  and  _216
REMARK   95  A    between atoms: _216  and  _217
REMARK   96  A    between atoms: _220  and  _222
REMARK   97  A    between atoms: _222  and  _223
REMARK   98  A    between atoms: _225  and  _227
REMARK   99  A    between atoms: _227  and  _228
REMARK  100  A    between atoms: _227  and  _230
REMARK  101  A    between atoms: _230  and  _231
REMARK  102  A    between atoms: _234  and  _236
REMARK  103  A    between atoms: _236  and  _237
REMARK  104  A    between atoms: _239  and  _241
REMARK  105  A    between atoms: _241  and  _242
REMARK  106  A    between atoms: _241  and  _244
REMARK  107  A    between atoms: _244  and  _245
REMARK  108  A    between atoms: _245  and  _246
REMARK  109  A    between atoms: _248  and  _250
REMARK  110  A    between atoms: _250  and  _251
REMARK  111  A    between atoms: _250  and  _253
REMARK  112  A    between atoms: _253  and  _254
REMARK  113  A    between atoms: _257  and  _259
REMARK  114  A    between atoms: _259  and  _260
REMARK  115  A    between atoms: _259  and  _262
REMARK  116  A    between atoms: _262  and  _263
REMARK  117  A    between atoms: _263  and  _264
REMARK  118  A    between atoms: _264  and  _265
REMARK  119  A    between atoms: _265  and  _266
REMARK  120  A    between atoms: _270  and  _272
REMARK  121  A    between atoms: _272  and  _273
REMARK  122  A    between atoms: _276  and  _278
REMARK  123  A    between atoms: _278  and  _279
REMARK  124  A    between atoms: _278  and  _281
REMARK  125  A    between atoms: _281  and  _282
REMARK  126  A    between atoms: _285  and  _287
REMARK  127  A    between atoms: _287  and  _288
REMARK  128  A    between atoms: _287  and  _290
REMARK  129  A    between atoms: _290  and  _291
REMARK  130  A    between atoms: _294  and  _296
REMARK  131  A    between atoms: _296  and  _297
REMARK  132  A    between atoms: _296  and  _299
REMARK  133  A    between atoms: _299  and  _300
REMARK  134  A    between atoms: _303  and  _305
REMARK  135  A    between atoms: _305  and  _306
REMARK  136  A    between atoms: _305  and  _308
REMARK  137  A    between atoms: _308  and  _309
REMARK  138  A    between atoms: _314  and  _316
REMARK  139  A    between atoms: _316  and  _317
REMARK  140  A    between atoms: _316  and  _319
REMARK  141  A    between atoms: _319  and  _320
REMARK  142  A    between atoms: _325  and  _327
REMARK  143  A    between atoms: _327  and  _328
REMARK  144  A    between atoms: _327  and  _330
REMARK  145  A    between atoms: _330  and  _331
REMARK  146  A    between atoms: _334  and  _336
REMARK  147  A    between atoms: _336  and  _337
REMARK  148  A    between atoms: _339  and  _341
REMARK  149  A    between atoms: _341  and  _342
REMARK  150  A    between atoms: _341  and  _344
REMARK  151  A    between atoms: _344  and  _345
REMARK  152  A    between atoms: _348  and  _350
REMARK  153  A    between atoms: _350  and  _351
REMARK  154  A    between atoms: _350  and  _353
REMARK  155  A    between atoms: _353  and  _354
REMARK  156  A    between atoms: _357  and  _359
REMARK  157  A    between atoms: _359  and  _360
REMARK  158  A    between atoms: _363  and  _365
REMARK  159  A    between atoms: _365  and  _366
REMARK  160  A    between atoms: _365  and  _368
REMARK  161  A    between atoms: _368  and  _369
REMARK  162  A    between atoms: _369  and  _370
REMARK  163  A    between atoms: _370  and  _371
REMARK  164  A    between atoms: _371  and  _372
REMARK  165  A    between atoms: _376  and  _378
REMARK  166  A    between atoms: _378  and  _379
REMARK  167  A    between atoms: _378  and  _381
REMARK  168  A    between atoms: _381  and  _382
REMARK  169  A    between atoms: _384  and  _386
REMARK  170  A    between atoms: _386  and  _387
REMARK  171  A    between atoms: _389  and  _391
REMARK  172  A    between atoms: _391  and  _392
REMARK  173  A    between atoms: _391  and  _394
REMARK  174  A    between atoms: _394  and  _395
REMARK  175  A    between atoms: _398  and  _400
REMARK  176  A    between atoms: _400  and  _401
REMARK  177  A    between atoms: _400  and  _403
REMARK  178  A    between atoms: _403  and  _404
REMARK  179  A    between atoms: _410  and  _412
REMARK  180  A    between atoms: _412  and  _413
REMARK  181  A    between atoms: _415  and  _417
REMARK  182  A    between atoms: _417  and  _418
REMARK  183  A    between atoms: _417  and  _420
REMARK  184  A    between atoms: _423  and  _425
REMARK  185  A    between atoms: _425  and  _426
REMARK  186  A    between atoms: _428  and  _430
REMARK  187  A    between atoms: _430  and  _431
REMARK  188  A    between atoms: _430  and  _433
REMARK  189  A    between atoms: _433  and  _434
REMARK  190  A    between atoms: _440  and  _442
REMARK  191  A    between atoms: _442  and  _443
REMARK  192  A    between atoms: _442  and  _445
REMARK  193  A    between atoms: _445  and  _446
REMARK  194  A    between atoms: _451  and  _452
REMARK  195  A    between atoms: _454  and  _456
REMARK  196  A    between atoms: _456  and  _457
REMARK  197  A    between atoms: _456  and  _459
REMARK  198  A    between atoms: _459  and  _460
REMARK  199  A    between atoms: _462  and  _464
REMARK  200  A    between atoms: _464  and  _465
REMARK  201  A    between atoms: _468  and  _470
REMARK  202  A    between atoms: _470  and  _471
REMARK  203  A    between atoms: _470  and  _473
REMARK  204  A    between atoms: _473  and  _474
REMARK  205  A    between atoms: _479  and  _480
REMARK  206  A    between atoms: _482  and  _484
REMARK  207  A    between atoms: _484  and  _485
REMARK  208  A    between atoms: _484  and  _487
REMARK  209  A    between atoms: _490  and  _492
REMARK  210  A    between atoms: _492  and  _493
REMARK  211  A    between atoms: _492  and  _495
REMARK  212  A    between atoms: _495  and  _496
REMARK  213  A    between atoms: _499  and  _501
REMARK  214  A    between atoms: _501  and  _502
REMARK  215  A    between atoms: _501  and  _504
REMARK  216  A    between atoms: _507  and  _509
REMARK  217  A    between atoms: _509  and  _510
REMARK  218  A    between atoms: _509  and  _512
REMARK  219  A    between atoms: _512  and  _513
REMARK  220  A    between atoms: _516  and  _518
REMARK  221  A    between atoms: _518  and  _519
REMARK  222  A    between atoms: _518  and  _521
REMARK  223  A    between atoms: _521  and  _522
REMARK  224  A    between atoms: _525  and  _527
REMARK  225  A    between atoms: _527  and  _528
REMARK  226  A    between atoms: _527  and  _530
REMARK  227  A    between atoms: _530  and  _531
REMARK  228  A    between atoms: _531  and  _532
REMARK  229  A    between atoms: _532  and  _533
REMARK  230  A    between atoms: _533  and  _534
REMARK  231  A    between atoms: _538  and  _540
REMARK  232  A    between atoms: _540  and  _541
REMARK  233  A    between atoms: _540  and  _543
REMARK  234  A    between atoms: _543  and  _544
REMARK  235  A    between atoms: _549  and  _551
REMARK  236  A    between atoms: _551  and  _552
REMARK  237  A    between atoms: _555  and  _557
REMARK  238  A    between atoms: _557  and  _558
REMARK  239  A    between atoms: _557  and  _560
REMARK  240  A    between atoms: _560  and  _561
REMARK  241  A    between atoms: _571  and  _573
REMARK  242  A    between atoms: _573  and  _574
REMARK  243  A    between atoms: _573  and  _576
REMARK  244  A    between atoms: _576  and  _577
REMARK  245  A    between atoms: _577  and  _578
REMARK  246  A    between atoms: _581  and  _583
REMARK  247  A    between atoms: _583  and  _584
REMARK  248  A    between atoms: _583  and  _586
REMARK  249  A    between atoms: _586  and  _587
REMARK  250  A    between atoms: _589  and  _591
REMARK  251  A    between atoms: _591  and  _592
REMARK  252  A    between atoms: _591  and  _594
REMARK  253  A    between atoms: _594  and  _595
REMARK  254  A    between atoms: _601  and  _603
REMARK  255  A    between atoms: _603  and  _604
REMARK  256  A    between atoms: _603  and  _606
REMARK  257  A    between atoms: _606  and  _607
REMARK  258  A    between atoms: _610  and  _612
REMARK  259  A    between atoms: _612  and  _613
REMARK  260  A    between atoms: _612  and  _615
REMARK  261  A    between atoms: _618  and  _620
REMARK  262  A    between atoms: _620  and  _621
REMARK  263  A    between atoms: _620  and  _623
REMARK  264  A    between atoms: _623  and  _624
REMARK  265  A    between atoms: _624  and  _625
REMARK  266  A    between atoms: _627  and  _629
REMARK  267  A    between atoms: _629  and  _630
REMARK  268  A    between atoms: _632  and  _634
REMARK  269  A    between atoms: _634  and  _635
REMARK  270  A    between atoms: _634  and  _637
REMARK  271  A    between atoms: _637  and  _638
REMARK  272  A    between atoms: _641  and  _643
REMARK  273  A    between atoms: _643  and  _644
REMARK  274  A    between atoms: _643  and  _646
REMARK  275  A    between atoms: _646  and  _647
REMARK  276  A    between atoms: _647  and  _648
REMARK  277  A    between atoms: _648  and  _649
REMARK  278  A    between atoms: _649  and  _650
REMARK  279  A    between atoms: _654  and  _656
REMARK  280  A    between atoms: _656  and  _657
REMARK  281  A    between atoms: _656  and  _659
REMARK                            x       y       z     vdW  Elec       q    Type
REMARK                         _______ _______ _______ _____ _____    ______ ____
ROOT
ATOM      1  O   HOH     1      -2.985  13.655  20.464  0.00  0.00    +0.000 OA
ENDROOT
TORSDOF 0
REMARK  Name = ../refined-set-2016/2yki/2yki_pocket.pdb
REMARK  281 active torsions:
REMARK  status: ('A' for Active; 'I' for Inactive)
REMARK    1  A    between atoms: _1  and  _3
REMARK    2  A    between atoms: _3  and  _4
REMARK    3  A    between atoms: _3  and  _6
REMARK    4  A    between atoms: _6  and  _7
REMARK    5  A    between atoms: _13  and  _15
REMARK    6  A    between atoms: _15  and  _16
REMARK    7  A    between atoms: _19  and  _21
REMARK    8  A    between atoms: _21  and  _22
REMARK    9  A    between atoms: _21  and  _24
REMARK   10  A    between atoms: _24  and  _25
REMARK   11  A    between atoms: _31  and  _33
REMARK   12  A    between atoms: _33  and  _34
REMARK   13  A    between atoms: _33  and  _36
REMARK   14  A    between atoms: _36  and  _37
REMARK   15  A    between atoms: _37  and  _38
REMARK   16  A    between atoms: _43  and  _45
REMARK   17  A    between atoms: _45  and  _46
REMARK   18  A    between atoms: _45  and  _48
REMARK   19  A    between atoms: _48  and  _49
REMARK   20  A    between atoms: _52  and  _54
REMARK   21  A    between atoms: _54  and  _55
REMARK   22  A    between atoms: _58  and  _60
REMARK   23  A    between atoms: _60  and  _61
REMARK   24  A    between atoms: _60  and  _63
REMARK   25  A    between atoms: _63  and  _64
REMARK   26  A    between atoms: _67  and  _69
REMARK   27  A    between atoms: _69  and  _70
REMARK   28  A    between atoms: _69  and  _72
REMARK   29  A    between atoms: _72  and  _73
REMARK   30  A    between atoms: _73  and  _74
REMARK   31  A    between atoms: _76  and  _78
REMARK   32  A    between atoms: _78  and  _79
REMARK   33  A    between atoms: _78  and  _81
REMARK   34  A    between atoms: _81  and  _82
REMARK   35  A    between atoms: _82  and  _83
REMARK   36  A    between atoms: _86  and  _88
REMARK   37  A    between atoms: _88  and  _89
REMARK   38  A    between atoms: _88  and  _91
REMARK   39  A    between atoms: _91  and  _92
REMARK   40  A    between atoms: _95  and  _97
REMARK   41  A    between atoms: _97  and  _98
REMARK   42  A    between atoms: _97  and  _100
REMARK   43  A    between atoms: _100  and  _101
REMARK   44  A    between atoms: _104  and  _106
REMARK   45  A    between atoms: _106  and  _107
REMARK   46  A    between atoms: _106  and  _109
REMARK   47  A    between atoms: _109  and  _110
REMARK   48  A    between atoms: _112  and  _114
REMARK   49  A    between atoms: _114  and  _115
REMARK   50  A    between atoms: _114  and  _117
REMARK   51  A    between atoms: _117  and  _118
REMARK   52  A    between atoms: _123  and  _125
REMARK   53  A    between atoms: _125  and  _126
REMARK   54  A    between atoms: _125  and  _128
REMARK   55  A    between atoms: _128  and  _129
REMARK   56  A    between atoms: _131  and  _133
REMARK   57  A    between atoms: _133  and  _134
REMARK   58  A    between atoms: _133  and  _136
REMARK   59  A    between atoms: _136  and  _137
REMARK   60  A    between atoms: _139  and  _141
REMARK   61  A    between atoms: _141  and  _142
REMARK   62  A    between atoms: _141  and  _144
REMARK   63  A    between atoms: _144  and  _145
REMARK   64  A    between atoms: _148  and  _150
REMARK   65  A    between atoms: _150  and  _151
REMARK   66  A    between atoms: _154  and  _156
REMARK   67  A    between atoms: _156  and  _157
REMARK   68  A    between atoms: _156  and  _159
REMARK   69  A    between atoms: _159  and  _160
REMARK   70  A    between atoms: _163  and  _165
REMARK   71  A    between atoms: _165  and  _166
REMARK   72  A    between atoms: _165  and  _168
REMARK   73  A    between atoms: _168  and  _169
REMARK   74  A    between atoms: _169  and  _170
REMARK   75  A    between atoms: _170  and  _171
REMARK   76  A    between atoms: _171  and  _172
REMARK   77  A    between atoms: _176  and  _178
REMARK   78  A    between atoms: _178  and  _179
REMARK   79  A    between atoms: _178  and  _181
REMARK   80  A    between atoms: _181  and  _182
REMARK   81  A    between atoms: _185  and  _187
REMARK   82  A    between atoms: _187  and  _188
REMARK   83  A    between atoms: _187  and  _190
REMARK   84  A    between atoms: _190  and  _191
REMARK   85  A    between atoms: _194  and  _196
REMARK   86  A    between atoms: _196  and  _197
REMARK   87  A    between atoms: _196  and  _199
REMARK   88  A    between atoms: _202  and  _204
REMARK   89  A    between atoms: _204  and  _205
REMARK   90  A    between atoms: _204  and  _207
REMARK   91  A    between atoms: _207  and  _208
REMARK   92  A    between atoms: _211  and  _213
REMARK   93  A    between atoms: _213  and  _214
REMARK   94  A    between atoms: _213  and  _216
REMARK   95  A    between atoms: _216  and  _217
REMARK   96  A    between atoms: _220  and  _222
REMARK   97  A    between atoms: _222  and  _223
REMARK   98  A    between atoms: _225  and  _227
REMARK   99  A    between atoms: _227  and  _228
REMARK  100  A    between atoms: _227  and  _230
REMARK  101  A    between atoms: _230  and  _231
REMARK  102  A    between atoms: _234  and  _236
REMARK  103  A    between atoms: _236  and  _237
REMARK  104  A    between atoms: _239  and  _241
REMARK  105  A    between atoms: _241  and  _242
REMARK  106  A    between atoms: _241  and  _244
REMARK  107  A    between atoms: _244  and  _245
REMARK  108  A    between atoms: _245  and  _246
REMARK  109  A    between atoms: _248  and  _250
REMARK  110  A    between atoms: _250  and  _251
REMARK  111  A    between atoms: _250  and  _253
REMARK  112  A    between atoms: _253  and  _254
REMARK  113  A    between atoms: _257  and  _259
REMARK  114  A    between atoms: _259  and  _260
REMARK  115  A    between atoms: _259  and  _262
REMARK  116  A    between atoms: _262  and  _263
REMARK  117  A    between atoms: _263  and  _264
REMARK  118  A    between atoms: _264  and  _265
REMARK  119  A    between atoms: _265  and  _266
REMARK  120  A    between atoms: _270  and  _272
REMARK  121  A    between atoms: _272  and  _273
REMARK  122  A    between atoms: _276  and  _278
REMARK  123  A    between atoms: _278  and  _279
REMARK  124  A    between atoms: _278  and  _281
REMARK  125  A    between atoms: _281  and  _282
REMARK  126  A    between atoms: _285  and  _287
REMARK  127  A    between atoms: _287  and  _288
REMARK  128  A    between atoms: _287  and  _290
REMARK  129  A    between atoms: _290  and  _291
REMARK  130  A    between atoms: _294  and  _296
REMARK  131  A    between atoms: _296  and  _297
REMARK  132  A    between atoms: _296  and  _299
REMARK  133  A    between atoms: _299  and  _300
REMARK  134  A    between atoms: _303  and  _305
REMARK  135  A    between atoms: _305  and  _306
REMARK  136  A    between atoms: _305  and  _308
REMARK  137  A    between atoms: _308  and  _309
REMARK  138  A    between atoms: _314  and  _316
REMARK  139  A    between atoms: _316  and  _317
REMARK  140  A    between atoms: _316  and  _319
REMARK  141  A    between atoms: _319  and  _320
REMARK  142  A    between atoms: _325  and  _327
REMARK  143  A    between atoms: _327  and  _328
REMARK  144  A    between atoms: _327  and  _330
REMARK  145  A    between atoms: _330  and  _331
REMARK  146  A    between atoms: _334  and  _336
REMARK  147  A    between atoms: _336  and  _337
REMARK  148  A    between atoms: _339  and  _341
REMARK  149  A    between atoms: _341  and  _342
REMARK  150  A    between atoms: _341  and  _344
REMARK  151  A    between atoms: _344  and  _345
REMARK  152  A    between atoms: _348  and  _350
REMARK  153  A    between atoms: _350  and  _351
REMARK  154  A    between atoms: _350  and  _353
REMARK  155  A    between atoms: _353  and  _354
REMARK  156  A    between atoms: _357  and  _359
REMARK  157  A    between atoms: _359  and  _360
REMARK  158  A    between atoms: _363  and  _365
REMARK  159  A    between atoms: _365  and  _366
REMARK  160  A    between atoms: _365  and  _368
REMARK  161  A    between atoms: _368  and  _369
REMARK  162  A    between atoms: _369  and  _370
REMARK  163  A    between atoms: _370  and  _371
REMARK  164  A    between atoms: _371  and  _372
REMARK  165  A    between atoms: _376  and  _378
REMARK  166  A    between atoms: _378  and  _379
REMARK  167  A    between atoms: _378  and  _381
REMARK  168  A    between atoms: _381  and  _382
REMARK  169  A    between atoms: _384  and  _386
REMARK  170  A    between atoms: _386  and  _387
REMARK  171  A    between atoms: _389  and  _391
REMARK  172  A    between atoms: _391  and  _392
REMARK  173  A    between atoms: _391  and  _394
REMARK  174  A    between atoms: _394  and  _395
REMARK  175  A    between atoms: _398  and  _400
REMARK  176  A    between atoms: _400  and  _401
REMARK  177  A    between atoms: _400  and  _403
REMARK  178  A    between atoms: _403  and  _404
REMARK  179  A    between atoms: _410  and  _412
REMARK  180  A    between atoms: _412  and  _413
REMARK  181  A    between atoms: _415  and  _417
REMARK  182  A    between atoms: _417  and  _418
REMARK  183  A    between atoms: _417  and  _420
REMARK  184  A    between atoms: _423  and  _425
REMARK  185  A    between atoms: _425  and  _426
REMARK  186  A    between atoms: _428  and  _430
REMARK  187  A    between atoms: _430  and  _431
REMARK  188  A    between atoms: _430  and  _433
REMARK  189  A    between atoms: _433  and  _434
REMARK  190  A    between atoms: _440  and  _442
REMARK  191  A    between atoms: _442  and  _443
REMARK  192  A    between atoms: _442  and  _445
REMARK  193  A    between atoms: _445  and  _446
REMARK  194  A    between atoms: _451  and  _452
REMARK  195  A    between atoms: _454  and  _456
REMARK  196  A    between atoms: _456  and  _457
REMARK  197  A    between atoms: _456  and  _459
REMARK  198  A    between atoms: _459  and  _460
REMARK  199  A    between atoms: _462  and  _464
REMARK  200  A    between atoms: _464  and  _465
REMARK  201  A    between atoms: _468  and  _470
REMARK  202  A    between atoms: _470  and  _471
REMARK  203  A    between atoms: _470  and  _473
REMARK  204  A    between atoms: _473  and  _474
REMARK  205  A    between atoms: _479  and  _480
REMARK  206  A    between atoms: _482  and  _484
REMARK  207  A    between atoms: _484  and  _485
REMARK  208  A    between atoms: _484  and  _487
REMARK  209  A    between atoms: _490  and  _492
REMARK  210  A    between atoms: _492  and  _493
REMARK  211  A    between atoms: _492  and  _495
REMARK  212  A    between atoms: _495  and  _496
REMARK  213  A    between atoms: _499  and  _501
REMARK  214  A    between atoms: _501  and  _502
REMARK  215  A    between atoms: _501  and  _504
REMARK  216  A    between atoms: _507  and  _509
REMARK  217  A    between atoms: _509  and  _510
REMARK  218  A    between atoms: _509  and  _512
REMARK  219  A    between atoms: _512  and  _513
REMARK  220  A    between atoms: _516  and  _518
REMARK  221  A    between atoms: _518  and  _519
REMARK  222  A    between atoms: _518  and  _521
REMARK  223  A    between atoms: _521  and  _522
REMARK  224  A    between atoms: _525  and  _527
REMARK  225  A    between atoms: _527  and  _528
REMARK  226  A    between atoms: _527  and  _530
REMARK  227  A    between atoms: _530  and  _531
REMARK  228  A    between atoms: _531  and  _532
REMARK  229  A    between atoms: _532  and  _533
REMARK  230  A    between atoms: _533  and  _534
REMARK  231  A    between atoms: _538  and  _540
REMARK  232  A    between atoms: _540  and  _541
REMARK  233  A    between atoms: _540  and  _543
REMARK  234  A    between atoms: _543  and  _544
REMARK  235  A    between atoms: _549  and  _551
REMARK  236  A    between atoms: _551  and  _552
REMARK  237  A    between atoms: _555  and  _557
REMARK  238  A    between atoms: _557  and  _558
REMARK  239  A    between atoms: _557  and  _560
REMARK  240  A    between atoms: _560  and  _561
REMARK  241  A    between atoms: _571  and  _573
REMARK  242  A    between atoms: _573  and  _574
REMARK  243  A    between atoms: _573  and  _576
REMARK  244  A    between atoms: _576  and  _577
REMARK  245  A    between atoms: _577  and  _578
REMARK  246  A    between atoms: _581  and  _583
REMARK  247  A    between atoms: _583  and  _584
REMARK  248  A    between atoms: _583  and  _586
REMARK  249  A    between atoms: _586  and  _587
REMARK  250  A    between atoms: _589  and  _591
REMARK  251  A    between atoms: _591  and  _592
REMARK  252  A    between atoms: _591  and  _594
REMARK  253  A    between atoms: _594  and  _595
REMARK  254  A    between atoms: _601  and  _603
REMARK  255  A    between atoms: _603  and  _604
REMARK  256  A    between atoms: _603  and  _606
REMARK  257  A    between atoms: _606  and  _607
REMARK  258  A    between atoms: _610  and  _612
REMARK  259  A    between atoms: _612  and  _613
REMARK  260  A    between atoms: _612  and  _615
REMARK  261  A    between atoms: _618  and  _620
REMARK  262  A    between atoms: _620  and  _621
REMARK  263  A    between atoms: _620  and  _623
REMARK  264  A    between atoms: _623  and  _624
REMARK  265  A    between atoms: _624  and  _625
REMARK  266  A    between atoms: _627  and  _629
REMARK  267  A    between atoms: _629  and  _630
REMARK  268  A    between atoms: _632  and  _634
REMARK  269  A    between atoms: _634  and  _635
REMARK  270  A    between atoms: _634  and  _637
REMARK  271  A    between atoms: _637  and  _638
REMARK  272  A    between atoms: _641  and  _643
REMARK  273  A    between atoms: _643  and  _644
REMARK  274  A    between atoms: _643  and  _646
REMARK  275  A    between atoms: _646  and  _647
REMARK  276  A    between atoms: _647  and  _648
REMARK  277  A    between atoms: _648  and  _649
REMARK  278  A    between atoms: _649  and  _650
REMARK  279  A    between atoms: _654  and  _656
REMARK  280  A    between atoms: _656  and  _657
REMARK  281  A    between atoms: _656  and  _659
REMARK                            x       y       z     vdW  Elec       q    Type
REMARK                         _______ _______ _______ _____ _____    ______ ____
ROOT
ATOM      1  O   HOH     1       0.825   5.320  19.148  0.00  0.00    +0.000 OA
ENDROOT
TORSDOF 0
REMARK  Name = ../refined-set-2016/2yki/2yki_pocket.pdb
REMARK  281 active torsions:
REMARK  status: ('A' for Active; 'I' for Inactive)
REMARK    1  A    between atoms: _1  and  _3
REMARK    2  A    between atoms: _3  and  _4
REMARK    3  A    between atoms: _3  and  _6
REMARK    4  A    between atoms: _6  and  _7
REMARK    5  A    between atoms: _13  and  _15
REMARK    6  A    between atoms: _15  and  _16
REMARK    7  A    between atoms: _19  and  _21
REMARK    8  A    between atoms: _21  and  _22
REMARK    9  A    between atoms: _21  and  _24
REMARK   10  A    between atoms: _24  and  _25
REMARK   11  A    between atoms: _31  and  _33
REMARK   12  A    between atoms: _33  and  _34
REMARK   13  A    between atoms: _33  and  _36
REMARK   14  A    between atoms: _36  and  _37
REMARK   15  A    between atoms: _37  and  _38
REMARK   16  A    between atoms: _43  and  _45
REMARK   17  A    between atoms: _45  and  _46
REMARK   18  A    between atoms: _45  and  _48
REMARK   19  A    between atoms: _48  and  _49
REMARK   20  A    between atoms: _52  and  _54
REMARK   21  A    between atoms: _54  and  _55
REMARK   22  A    between atoms: _58  and  _60
REMARK   23  A    between atoms: _60  and  _61
REMARK   24  A    between atoms: _60  and  _63
REMARK   25  A    between atoms: _63  and  _64
REMARK   26  A    between atoms: _67  and  _69
REMARK   27  A    between atoms: _69  and  _70
REMARK   28  A    between atoms: _69  and  _72
REMARK   29  A    between atoms: _72  and  _73
REMARK   30  A    between atoms: _73  and  _74
REMARK   31  A    between atoms: _76  and  _78
REMARK   32  A    between atoms: _78  and  _79
REMARK   33  A    between atoms: _78  and  _81
REMARK   34  A    between atoms: _81  and  _82
REMARK   35  A    between atoms: _82  and  _83
REMARK   36  A    between atoms: _86  and  _88
REMARK   37  A    between atoms: _88  and  _89
REMARK   38  A    between atoms: _88  and  _91
REMARK   39  A    between atoms: _91  and  _92
REMARK   40  A    between atoms: _95  and  _97
REMARK   41  A    between atoms: _97  and  _98
REMARK   42  A    between atoms: _97  and  _100
REMARK   43  A    between atoms: _100  and  _101
REMARK   44  A    between atoms: _104  and  _106
REMARK   45  A    between atoms: _106  and  _107
REMARK   46  A    between atoms: _106  and  _109
REMARK   47  A    between atoms: _109  and  _110
REMARK   48  A    between atoms: _112  and  _114
REMARK   49  A    between atoms: _114  and  _115
REMARK   50  A    between atoms: _114  and  _117
REMARK   51  A    between atoms: _117  and  _118
REMARK   52  A    between atoms: _123  and  _125
REMARK   53  A    between atoms: _125  and  _126
REMARK   54  A    between atoms: _125  and  _128
REMARK   55  A    between atoms: _128  and  _129
REMARK   56  A    between atoms: _131  and  _133
REMARK   57  A    between atoms: _133  and  _134
REMARK   58  A    between atoms: _133  and  _136
REMARK   59  A    between atoms: _136  and  _137
REMARK   60  A    between atoms: _139  and  _141
REMARK   61  A    between atoms: _141  and  _142
REMARK   62  A    between atoms: _141  and  _144
REMARK   63  A    between atoms: _144  and  _145
REMARK   64  A    between atoms: _148  and  _150
REMARK   65  A    between atoms: _150  and  _151
REMARK   66  A    between atoms: _154  and  _156
REMARK   67  A    between atoms: _156  and  _157
REMARK   68  A    between atoms: _156  and  _159
REMARK   69  A    between atoms: _159  and  _160
REMARK   70  A    between atoms: _163  and  _165
REMARK   71  A    between atoms: _165  and  _166
REMARK   72  A    between atoms: _165  and  _168
REMARK   73  A    between atoms: _168  and  _169
REMARK   74  A    between atoms: _169  and  _170
REMARK   75  A    between atoms: _170  and  _171
REMARK   76  A    between atoms: _171  and  _172
REMARK   77  A    between atoms: _176  and  _178
REMARK   78  A    between atoms: _178  and  _179
REMARK   79  A    between atoms: _178  and  _181
REMARK   80  A    between atoms: _181  and  _182
REMARK   81  A    between atoms: _185  and  _187
REMARK   82  A    between atoms: _187  and  _188
REMARK   83  A    between atoms: _187  and  _190
REMARK   84  A    between atoms: _190  and  _191
REMARK   85  A    between atoms: _194  and  _196
REMARK   86  A    between atoms: _196  and  _197
REMARK   87  A    between atoms: _196  and  _199
REMARK   88  A    between atoms: _202  and  _204
REMARK   89  A    between atoms: _204  and  _205
REMARK   90  A    between atoms: _204  and  _207
REMARK   91  A    between atoms: _207  and  _208
REMARK   92  A    between atoms: _211  and  _213
REMARK   93  A    between atoms: _213  and  _214
REMARK   94  A    between atoms: _213  and  _216
REMARK   95  A    between atoms: _216  and  _217
REMARK   96  A    between atoms: _220  and  _222
REMARK   97  A    between atoms: _222  and  _223
REMARK   98  A    between atoms: _225  and  _227
REMARK   99  A    between atoms: _227  and  _228
REMARK  100  A    between atoms: _227  and  _230
REMARK  101  A    between atoms: _230  and  _231
REMARK  102  A    between atoms: _234  and  _236
REMARK  103  A    between atoms: _236  and  _237
REMARK  104  A    between atoms: _239  and  _241
REMARK  105  A    between atoms: _241  and  _242
REMARK  106  A    between atoms: _241  and  _244
REMARK  107  A    between atoms: _244  and  _245
REMARK  108  A    between atoms: _245  and  _246
REMARK  109  A    between atoms: _248  and  _250
REMARK  110  A    between atoms: _250  and  _251
REMARK  111  A    between atoms: _250  and  _253
REMARK  112  A    between atoms: _253  and  _254
REMARK  113  A    between atoms: _257  and  _259
REMARK  114  A    between atoms: _259  and  _260
REMARK  115  A    between atoms: _259  and  _262
REMARK  116  A    between atoms: _262  and  _263
REMARK  117  A    between atoms: _263  and  _264
REMARK  118  A    between atoms: _264  and  _265
REMARK  119  A    between atoms: _265  and  _266
REMARK  120  A    between atoms: _270  and  _272
REMARK  121  A    between atoms: _272  and  _273
REMARK  122  A    between atoms: _276  and  _278
REMARK  123  A    between atoms: _278  and  _279
REMARK  124  A    between atoms: _278  and  _281
REMARK  125  A    between atoms: _281  and  _282
REMARK  126  A    between atoms: _285  and  _287
REMARK  127  A    between atoms: _287  and  _288
REMARK  128  A    between atoms: _287  and  _290
REMARK  129  A    between atoms: _290  and  _291
REMARK  130  A    between atoms: _294  and  _296
REMARK  131  A    between atoms: _296  and  _297
REMARK  132  A    between atoms: _296  and  _299
REMARK  133  A    between atoms: _299  and  _300
REMARK  134  A    between atoms: _303  and  _305
REMARK  135  A    between atoms: _305  and  _306
REMARK  136  A    between atoms: _305  and  _308
REMARK  137  A    between atoms: _308  and  _309
REMARK  138  A    between atoms: _314  and  _316
REMARK  139  A    between atoms: _316  and  _317
REMARK  140  A    between atoms: _316  and  _319
REMARK  141  A    between atoms: _319  and  _320
REMARK  142  A    between atoms: _325  and  _327
REMARK  143  A    between atoms: _327  and  _328
REMARK  144  A    between atoms: _327  and  _330
REMARK  145  A    between atoms: _330  and  _331
REMARK  146  A    between atoms: _334  and  _336
REMARK  147  A    between atoms: _336  and  _337
REMARK  148  A    between atoms: _339  and  _341
REMARK  149  A    between atoms: _341  and  _342
REMARK  150  A    between atoms: _341  and  _344
REMARK  151  A    between atoms: _344  and  _345
REMARK  152  A    between atoms: _348  and  _350
REMARK  153  A    between atoms: _350  and  _351
REMARK  154  A    between atoms: _350  and  _353
REMARK  155  A    between atoms: _353  and  _354
REMARK  156  A    between atoms: _357  and  _359
REMARK  157  A    between atoms: _359  and  _360
REMARK  158  A    between atoms: _363  and  _365
REMARK  159  A    between atoms: _365  and  _366
REMARK  160  A    between atoms: _365  and  _368
REMARK  161  A    between atoms: _368  and  _369
REMARK  162  A    between atoms: _369  and  _370
REMARK  163  A    between atoms: _370  and  _371
REMARK  164  A    between atoms: _371  and  _372
REMARK  165  A    between atoms: _376  and  _378
REMARK  166  A    between atoms: _378  and  _379
REMARK  167  A    between atoms: _378  and  _381
REMARK  168  A    between atoms: _381  and  _382
REMARK  169  A    between atoms: _384  and  _386
REMARK  170  A    between atoms: _386  and  _387
REMARK  171  A    between atoms: _389  and  _391
REMARK  172  A    between atoms: _391  and  _392
REMARK  173  A    between atoms: _391  and  _394
REMARK  174  A    between atoms: _394  and  _395
REMARK  175  A    between atoms: _398  and  _400
REMARK  176  A    between atoms: _400  and  _401
REMARK  177  A    between atoms: _400  and  _403
REMARK  178  A    between atoms: _403  and  _404
REMARK  179  A    between atoms: _410  and  _412
REMARK  180  A    between atoms: _412  and  _413
REMARK  181  A    between atoms: _415  and  _417
REMARK  182  A    between atoms: _417  and  _418
REMARK  183  A    between atoms: _417  and  _420
REMARK  184  A    between atoms: _423  and  _425
REMARK  185  A    between atoms: _425  and  _426
REMARK  186  A    between atoms: _428  and  _430
REMARK  187  A    between atoms: _430  and  _431
REMARK  188  A    between atoms: _430  and  _433
REMARK  189  A    between atoms: _433  and  _434
REMARK  190  A    between atoms: _440  and  _442
REMARK  191  A    between atoms: _442  and  _443
REMARK  192  A    between atoms: _442  and  _445
REMARK  193  A    between atoms: _445  and  _446
REMARK  194  A    between atoms: _451  and  _452
REMARK  195  A    between atoms: _454  and  _456
REMARK  196  A    between atoms: _456  and  _457
REMARK  197  A    between atoms: _456  and  _459
REMARK  198  A    between atoms: _459  and  _460
REMARK  199  A    between atoms: _462  and  _464
REMARK  200  A    between atoms: _464  and  _465
REMARK  201  A    between atoms: _468  and  _470
REMARK  202  A    between atoms: _470  and  _471
REMARK  203  A    between atoms: _470  and  _473
REMARK  204  A    between atoms: _473  and  _474
REMARK  205  A    between atoms: _479  and  _480
REMARK  206  A    between atoms: _482  and  _484
REMARK  207  A    between atoms: _484  and  _485
REMARK  208  A    between atoms: _484  and  _487
REMARK  209  A    between atoms: _490  and  _492
REMARK  210  A    between atoms: _492  and  _493
REMARK  211  A    between atoms: _492  and  _495
REMARK  212  A    between atoms: _495  and  _496
REMARK  213  A    between atoms: _499  and  _501
REMARK  214  A    between atoms: _501  and  _502
REMARK  215  A    between atoms: _501  and  _504
REMARK  216  A    between atoms: _507  and  _509
REMARK  217  A    between atoms: _509  and  _510
REMARK  218  A    between atoms: _509  and  _512
REMARK  219  A    between atoms: _512  and  _513
REMARK  220  A    between atoms: _516  and  _518
REMARK  221  A    between atoms: _518  and  _519
REMARK  222  A    between atoms: _518  and  _521
REMARK  223  A    between atoms: _521  and  _522
REMARK  224  A    between atoms: _525  and  _527
REMARK  225  A    between atoms: _527  and  _528
REMARK  226  A    between atoms: _527  and  _530
REMARK  227  A    between atoms: _530  and  _531
REMARK  228  A    between atoms: _531  and  _532
REMARK  229  A    between atoms: _532  and  _533
REMARK  230  A    between atoms: _533  and  _534
REMARK  231  A    between atoms: _538  and  _540
REMARK  232  A    between atoms: _540  and  _541
REMARK  233  A    between atoms: _540  and  _543
REMARK  234  A    between atoms: _543  and  _544
REMARK  235  A    between atoms: _549  and  _551
REMARK  236  A    between atoms: _551  and  _552
REMARK  237  A    between atoms: _555  and  _557
REMARK  238  A    between atoms: _557  and  _558
REMARK  239  A    between atoms: _557  and  _560
REMARK  240  A    between atoms: _560  and  _561
REMARK  241  A    between atoms: _571  and  _573
REMARK  242  A    between atoms: _573  and  _574
REMARK  243  A    between atoms: _573  and  _576
REMARK  244  A    between atoms: _576  and  _577
REMARK  245  A    between atoms: _577  and  _578
REMARK  246  A    between atoms: _581  and  _583
REMARK  247  A    between atoms: _583  and  _584
REMARK  248  A    between atoms: _583  and  _586
REMARK  249  A    between atoms: _586  and  _587
REMARK  250  A    between atoms: _589  and  _591
REMARK  251  A    between atoms: _591  and  _592
REMARK  252  A    between atoms: _591  and  _594
REMARK  253  A    between atoms: _594  and  _595
REMARK  254  A    between atoms: _601  and  _603
REMARK  255  A    between atoms: _603  and  _604
REMARK  256  A    between atoms: _603  and  _606
REMARK  257  A    between atoms: _606  and  _607
REMARK  258  A    between atoms: _610  and  _612
REMARK  259  A    between atoms: _612  and  _613
REMARK  260  A    between atoms: _612  and  _615
REMARK  261  A    between atoms: _618  and  _620
REMARK  262  A    between atoms: _620  and  _621
REMARK  263  A    between atoms: _620  and  _623
REMARK  264  A    between atoms: _623  and  _624
REMARK  265  A    between atoms: _624  and  _625
REMARK  266  A    between atoms: _627  and  _629
REMARK  267  A    between atoms: _629  and  _630
REMARK  268  A    between atoms: _632  and  _634
REMARK  269  A    between atoms: _634  and  _635
REMARK  270  A    between atoms: _634  and  _637
REMARK  271  A    between atoms: _637  and  _638
REMARK  272  A    between atoms: _641  and  _643
REMARK  273  A    between atoms: _643  and  _644
REMARK  274  A    between atoms: _643  and  _646
REMARK  275  A    between atoms: _646  and  _647
REMARK  276  A    between atoms: _647  and  _648
REMARK  277  A    between atoms: _648  and  _649
REMARK  278  A    between atoms: _649  and  _650
REMARK  279  A    between atoms: _654  and  _656
REMARK  280  A    between atoms: _656  and  _657
REMARK  281  A    between atoms: _656  and  _659
REMARK                            x       y       z     vdW  Elec       q    Type
REMARK                         _______ _______ _______ _____ _____    ______ ____
ROOT
ATOM      1  O   HOH     1       0.128   7.205  24.193  0.00  0.00    +0.000 OA
ENDROOT
TORSDOF 0
REMARK  Name = ../refined-set-2016/2yki/2yki_pocket.pdb
REMARK  281 active torsions:
REMARK  status: ('A' for Active; 'I' for Inactive)
REMARK    1  A    between atoms: _1  and  _3
REMARK    2  A    between atoms: _3  and  _4
REMARK    3  A    between atoms: _3  and  _6
REMARK    4  A    between atoms: _6  and  _7
REMARK    5  A    between atoms: _13  and  _15
REMARK    6  A    between atoms: _15  and  _16
REMARK    7  A    between atoms: _19  and  _21
REMARK    8  A    between atoms: _21  and  _22
REMARK    9  A    between atoms: _21  and  _24
REMARK   10  A    between atoms: _24  and  _25
REMARK   11  A    between atoms: _31  and  _33
REMARK   12  A    between atoms: _33  and  _34
REMARK   13  A    between atoms: _33  and  _36
REMARK   14  A    between atoms: _36  and  _37
REMARK   15  A    between atoms: _37  and  _38
REMARK   16  A    between atoms: _43  and  _45
REMARK   17  A    between atoms: _45  and  _46
REMARK   18  A    between atoms: _45  and  _48
REMARK   19  A    between atoms: _48  and  _49
REMARK   20  A    between atoms: _52  and  _54
REMARK   21  A    between atoms: _54  and  _55
REMARK   22  A    between atoms: _58  and  _60
REMARK   23  A    between atoms: _60  and  _61
REMARK   24  A    between atoms: _60  and  _63
REMARK   25  A    between atoms: _63  and  _64
REMARK   26  A    between atoms: _67  and  _69
REMARK   27  A    between atoms: _69  and  _70
REMARK   28  A    between atoms: _69  and  _72
REMARK   29  A    between atoms: _72  and  _73
REMARK   30  A    between atoms: _73  and  _74
REMARK   31  A    between atoms: _76  and  _78
REMARK   32  A    between atoms: _78  and  _79
REMARK   33  A    between atoms: _78  and  _81
REMARK   34  A    between atoms: _81  and  _82
REMARK   35  A    between atoms: _82  and  _83
REMARK   36  A    between atoms: _86  and  _88
REMARK   37  A    between atoms: _88  and  _89
REMARK   38  A    between atoms: _88  and  _91
REMARK   39  A    between atoms: _91  and  _92
REMARK   40  A    between atoms: _95  and  _97
REMARK   41  A    between atoms: _97  and  _98
REMARK   42  A    between atoms: _97  and  _100
REMARK   43  A    between atoms: _100  and  _101
REMARK   44  A    between atoms: _104  and  _106
REMARK   45  A    between atoms: _106  and  _107
REMARK   46  A    between atoms: _106  and  _109
REMARK   47  A    between atoms: _109  and  _110
REMARK   48  A    between atoms: _112  and  _114
REMARK   49  A    between atoms: _114  and  _115
REMARK   50  A    between atoms: _114  and  _117
REMARK   51  A    between atoms: _117  and  _118
REMARK   52  A    between atoms: _123  and  _125
REMARK   53  A    between atoms: _125  and  _126
REMARK   54  A    between atoms: _125  and  _128
REMARK   55  A    between atoms: _128  and  _129
REMARK   56  A    between atoms: _131  and  _133
REMARK   57  A    between atoms: _133  and  _134
REMARK   58  A    between atoms: _133  and  _136
REMARK   59  A    between atoms: _136  and  _137
REMARK   60  A    between atoms: _139  and  _141
REMARK   61  A    between atoms: _141  and  _142
REMARK   62  A    between atoms: _141  and  _144
REMARK   63  A    between atoms: _144  and  _145
REMARK   64  A    between atoms: _148  and  _150
REMARK   65  A    between atoms: _150  and  _151
REMARK   66  A    between atoms: _154  and  _156
REMARK   67  A    between atoms: _156  and  _157
REMARK   68  A    between atoms: _156  and  _159
REMARK   69  A    between atoms: _159  and  _160
REMARK   70  A    between atoms: _163  and  _165
REMARK   71  A    between atoms: _165  and  _166
REMARK   72  A    between atoms: _165  and  _168
REMARK   73  A    between atoms: _168  and  _169
REMARK   74  A    between atoms: _169  and  _170
REMARK   75  A    between atoms: _170  and  _171
REMARK   76  A    between atoms: _171  and  _172
REMARK   77  A    between atoms: _176  and  _178
REMARK   78  A    between atoms: _178  and  _179
REMARK   79  A    between atoms: _178  and  _181
REMARK   80  A    between atoms: _181  and  _182
REMARK   81  A    between atoms: _185  and  _187
REMARK   82  A    between atoms: _187  and  _188
REMARK   83  A    between atoms: _187  and  _190
REMARK   84  A    between atoms: _190  and  _191
REMARK   85  A    between atoms: _194  and  _196
REMARK   86  A    between atoms: _196  and  _197
REMARK   87  A    between atoms: _196  and  _199
REMARK   88  A    between atoms: _202  and  _204
REMARK   89  A    between atoms: _204  and  _205
REMARK   90  A    between atoms: _204  and  _207
REMARK   91  A    between atoms: _207  and  _208
REMARK   92  A    between atoms: _211  and  _213
REMARK   93  A    between atoms: _213  and  _214
REMARK   94  A    between atoms: _213  and  _216
REMARK   95  A    between atoms: _216  and  _217
REMARK   96  A    between atoms: _220  and  _222
REMARK   97  A    between atoms: _222  and  _223
REMARK   98  A    between atoms: _225  and  _227
REMARK   99  A    between atoms: _227  and  _228
REMARK  100  A    between atoms: _227  and  _230
REMARK  101  A    between atoms: _230  and  _231
REMARK  102  A    between atoms: _234  and  _236
REMARK  103  A    between atoms: _236  and  _237
REMARK  104  A    between atoms: _239  and  _241
REMARK  105  A    between atoms: _241  and  _242
REMARK  106  A    between atoms: _241  and  _244
REMARK  107  A    between atoms: _244  and  _245
REMARK  108  A    between atoms: _245  and  _246
REMARK  109  A    between atoms: _248  and  _250
REMARK  110  A    between atoms: _250  and  _251
REMARK  111  A    between atoms: _250  and  _253
REMARK  112  A    between atoms: _253  and  _254
REMARK  113  A    between atoms: _257  and  _259
REMARK  114  A    between atoms: _259  and  _260
REMARK  115  A    between atoms: _259  and  _262
REMARK  116  A    between atoms: _262  and  _263
REMARK  117  A    between atoms: _263  and  _264
REMARK  118  A    between atoms: _264  and  _265
REMARK  119  A    between atoms: _265  and  _266
REMARK  120  A    between atoms: _270  and  _272
REMARK  121  A    between atoms: _272  and  _273
REMARK  122  A    between atoms: _276  and  _278
REMARK  123  A    between atoms: _278  and  _279
REMARK  124  A    between atoms: _278  and  _281
REMARK  125  A    between atoms: _281  and  _282
REMARK  126  A    between atoms: _285  and  _287
REMARK  127  A    between atoms: _287  and  _288
REMARK  128  A    between atoms: _287  and  _290
REMARK  129  A    between atoms: _290  and  _291
REMARK  130  A    between atoms: _294  and  _296
REMARK  131  A    between atoms: _296  and  _297
REMARK  132  A    between atoms: _296  and  _299
REMARK  133  A    between atoms: _299  and  _300
REMARK  134  A    between atoms: _303  and  _305
REMARK  135  A    between atoms: _305  and  _306
REMARK  136  A    between atoms: _305  and  _308
REMARK  137  A    between atoms: _308  and  _309
REMARK  138  A    between atoms: _314  and  _316
REMARK  139  A    between atoms: _316  and  _317
REMARK  140  A    between atoms: _316  and  _319
REMARK  141  A    between atoms: _319  and  _320
REMARK  142  A    between atoms: _325  and  _327
REMARK  143  A    between atoms: _327  and  _328
REMARK  144  A    between atoms: _327  and  _330
REMARK  145  A    between atoms: _330  and  _331
REMARK  146  A    between atoms: _334  and  _336
REMARK  147  A    between atoms: _336  and  _337
REMARK  148  A    between atoms: _339  and  _341
REMARK  149  A    between atoms: _341  and  _342
REMARK  150  A    between atoms: _341  and  _344
REMARK  151  A    between atoms: _344  and  _345
REMARK  152  A    between atoms: _348  and  _350
REMARK  153  A    between atoms: _350  and  _351
REMARK  154  A    between atoms: _350  and  _353
REMARK  155  A    between atoms: _353  and  _354
REMARK  156  A    between atoms: _357  and  _359
REMARK  157  A    between atoms: _359  and  _360
REMARK  158  A    between atoms: _363  and  _365
REMARK  159  A    between atoms: _365  and  _366
REMARK  160  A    between atoms: _365  and  _368
REMARK  161  A    between atoms: _368  and  _369
REMARK  162  A    between atoms: _369  and  _370
REMARK  163  A    between atoms: _370  and  _371
REMARK  164  A    between atoms: _371  and  _372
REMARK  165  A    between atoms: _376  and  _378
REMARK  166  A    between atoms: _378  and  _379
REMARK  167  A    between atoms: _378  and  _381
REMARK  168  A    between atoms: _381  and  _382
REMARK  169  A    between atoms: _384  and  _386
REMARK  170  A    between atoms: _386  and  _387
REMARK  171  A    between atoms: _389  and  _391
REMARK  172  A    between atoms: _391  and  _392
REMARK  173  A    between atoms: _391  and  _394
REMARK  174  A    between atoms: _394  and  _395
REMARK  175  A    between atoms: _398  and  _400
REMARK  176  A    between atoms: _400  and  _401
REMARK  177  A    between atoms: _400  and  _403
REMARK  178  A    between atoms: _403  and  _404
REMARK  179  A    between atoms: _410  and  _412
REMARK  180  A    between atoms: _412  and  _413
REMARK  181  A    between atoms: _415  and  _417
REMARK  182  A    between atoms: _417  and  _418
REMARK  183  A    between atoms: _417  and  _420
REMARK  184  A    between atoms: _423  and  _425
REMARK  185  A    between atoms: _425  and  _426
REMARK  186  A    between atoms: _428  and  _430
REMARK  187  A    between atoms: _430  and  _431
REMARK  188  A    between atoms: _430  and  _433
REMARK  189  A    between atoms: _433  and  _434
REMARK  190  A    between atoms: _440  and  _442
REMARK  191  A    between atoms: _442  and  _443
REMARK  192  A    between atoms: _442  and  _445
REMARK  193  A    between atoms: _445  and  _446
REMARK  194  A    between atoms: _451  and  _452
REMARK  195  A    between atoms: _454  and  _456
REMARK  196  A    between atoms: _456  and  _457
REMARK  197  A    between atoms: _456  and  _459
REMARK  198  A    between atoms: _459  and  _460
REMARK  199  A    between atoms: _462  and  _464
REMARK  200  A    between atoms: _464  and  _465
REMARK  201  A    between atoms: _468  and  _470
REMARK  202  A    between atoms: _470  and  _471
REMARK  203  A    between atoms: _470  and  _473
REMARK  204  A    between atoms: _473  and  _474
REMARK  205  A    between atoms: _479  and  _480
REMARK  206  A    between atoms: _482  and  _484
REMARK  207  A    between atoms: _484  and  _485
REMARK  208  A    between atoms: _484  and  _487
REMARK  209  A    between atoms: _490  and  _492
REMARK  210  A    between atoms: _492  and  _493
REMARK  211  A    between atoms: _492  and  _495
REMARK  212  A    between atoms: _495  and  _496
REMARK  213  A    between atoms: _499  and  _501
REMARK  214  A    between atoms: _501  and  _502
REMARK  215  A    between atoms: _501  and  _504
REMARK  216  A    between atoms: _507  and  _509
REMARK  217  A    between atoms: _509  and  _510
REMARK  218  A    between atoms: _509  and  _512
REMARK  219  A    between atoms: _512  and  _513
REMARK  220  A    between atoms: _516  and  _518
REMARK  221  A    between atoms: _518  and  _519
REMARK  222  A    between atoms: _518  and  _521
REMARK  223  A    between atoms: _521  and  _522
REMARK  224  A    between atoms: _525  and  _527
REMARK  225  A    between atoms: _527  and  _528
REMARK  226  A    between atoms: _527  and  _530
REMARK  227  A    between atoms: _530  and  _531
REMARK  228  A    between atoms: _531  and  _532
REMARK  229  A    between atoms: _532  and  _533
REMARK  230  A    between atoms: _533  and  _534
REMARK  231  A    between atoms: _538  and  _540
REMARK  232  A    between atoms: _540  and  _541
REMARK  233  A    between atoms: _540  and  _543
REMARK  234  A    between atoms: _543  and  _544
REMARK  235  A    between atoms: _549  and  _551
REMARK  236  A    between atoms: _551  and  _552
REMARK  237  A    between atoms: _555  and  _557
REMARK  238  A    between atoms: _557  and  _558
REMARK  239  A    between atoms: _557  and  _560
REMARK  240  A    between atoms: _560  and  _561
REMARK  241  A    between atoms: _571  and  _573
REMARK  242  A    between atoms: _573  and  _574
REMARK  243  A    between atoms: _573  and  _576
REMARK  244  A    between atoms: _576  and  _577
REMARK  245  A    between atoms: _577  and  _578
REMARK  246  A    between atoms: _581  and  _583
REMARK  247  A    between atoms: _583  and  _584
REMARK  248  A    between atoms: _583  and  _586
REMARK  249  A    between atoms: _586  and  _587
REMARK  250  A    between atoms: _589  and  _591
REMARK  251  A    between atoms: _591  and  _592
REMARK  252  A    between atoms: _591  and  _594
REMARK  253  A    between atoms: _594  and  _595
REMARK  254  A    between atoms: _601  and  _603
REMARK  255  A    between atoms: _603  and  _604
REMARK  256  A    between atoms: _603  and  _606
REMARK  257  A    between atoms: _606  and  _607
REMARK  258  A    between atoms: _610  and  _612
REMARK  259  A    between atoms: _612  and  _613
REMARK  260  A    between atoms: _612  and  _615
REMARK  261  A    between atoms: _618  and  _620
REMARK  262  A    between atoms: _620  and  _621
REMARK  263  A    between atoms: _620  and  _623
REMARK  264  A    between atoms: _623  and  _624
REMARK  265  A    between atoms: _624  and  _625
REMARK  266  A    between atoms: _627  and  _629
REMARK  267  A    between atoms: _629  and  _630
REMARK  268  A    between atoms: _632  and  _634
REMARK  269  A    between atoms: _634  and  _635
REMARK  270  A    between atoms: _634  and  _637
REMARK  271  A    between atoms: _637  and  _638
REMARK  272  A    between atoms: _641  and  _643
REMARK  273  A    between atoms: _643  and  _644
REMARK  274  A    between atoms: _643  and  _646
REMARK  275  A    between atoms: _646  and  _647
REMARK  276  A    between atoms: _647  and  _648
REMARK  277  A    between atoms: _648  and  _649
REMARK  278  A    between atoms: _649  and  _650
REMARK  279  A    between atoms: _654  and  _656
REMARK  280  A    between atoms: _656  and  _657
REMARK  281  A    between atoms: _656  and  _659
REMARK                            x       y       z     vdW  Elec       q    Type
REMARK                         _______ _______ _______ _____ _____    ______ ____
ROOT
ATOM      1  O   HOH     1       4.908   8.927  20.214  0.00  0.00    +0.000 OA
ENDROOT
TORSDOF 0
REMARK  Name = ../refined-set-2016/2yki/2yki_pocket.pdb
REMARK  281 active torsions:
REMARK  status: ('A' for Active; 'I' for Inactive)
REMARK    1  A    between atoms: _1  and  _3
REMARK    2  A    between atoms: _3  and  _4
REMARK    3  A    between atoms: _3  and  _6
REMARK    4  A    between atoms: _6  and  _7
REMARK    5  A    between atoms: _13  and  _15
REMARK    6  A    between atoms: _15  and  _16
REMARK    7  A    between atoms: _19  and  _21
REMARK    8  A    between atoms: _21  and  _22
REMARK    9  A    between atoms: _21  and  _24
REMARK   10  A    between atoms: _24  and  _25
REMARK   11  A    between atoms: _31  and  _33
REMARK   12  A    between atoms: _33  and  _34
REMARK   13  A    between atoms: _33  and  _36
REMARK   14  A    between atoms: _36  and  _37
REMARK   15  A    between atoms: _37  and  _38
REMARK   16  A    between atoms: _43  and  _45
REMARK   17  A    between atoms: _45  and  _46
REMARK   18  A    between atoms: _45  and  _48
REMARK   19  A    between atoms: _48  and  _49
REMARK   20  A    between atoms: _52  and  _54
REMARK   21  A    between atoms: _54  and  _55
REMARK   22  A    between atoms: _58  and  _60
REMARK   23  A    between atoms: _60  and  _61
REMARK   24  A    between atoms: _60  and  _63
REMARK   25  A    between atoms: _63  and  _64
REMARK   26  A    between atoms: _67  and  _69
REMARK   27  A    between atoms: _69  and  _70
REMARK   28  A    between atoms: _69  and  _72
REMARK   29  A    between atoms: _72  and  _73
REMARK   30  A    between atoms: _73  and  _74
REMARK   31  A    between atoms: _76  and  _78
REMARK   32  A    between atoms: _78  and  _79
REMARK   33  A    between atoms: _78  and  _81
REMARK   34  A    between atoms: _81  and  _82
REMARK   35  A    between atoms: _82  and  _83
REMARK   36  A    between atoms: _86  and  _88
REMARK   37  A    between atoms: _88  and  _89
REMARK   38  A    between atoms: _88  and  _91
REMARK   39  A    between atoms: _91  and  _92
REMARK   40  A    between atoms: _95  and  _97
REMARK   41  A    between atoms: _97  and  _98
REMARK   42  A    between atoms: _97  and  _100
REMARK   43  A    between atoms: _100  and  _101
REMARK   44  A    between atoms: _104  and  _106
REMARK   45  A    between atoms: _106  and  _107
REMARK   46  A    between atoms: _106  and  _109
REMARK   47  A    between atoms: _109  and  _110
REMARK   48  A    between atoms: _112  and  _114
REMARK   49  A    between atoms: _114  and  _115
REMARK   50  A    between atoms: _114  and  _117
REMARK   51  A    between atoms: _117  and  _118
REMARK   52  A    between atoms: _123  and  _125
REMARK   53  A    between atoms: _125  and  _126
REMARK   54  A    between atoms: _125  and  _128
REMARK   55  A    between atoms: _128  and  _129
REMARK   56  A    between atoms: _131  and  _133
REMARK   57  A    between atoms: _133  and  _134
REMARK   58  A    between atoms: _133  and  _136
REMARK   59  A    between atoms: _136  and  _137
REMARK   60  A    between atoms: _139  and  _141
REMARK   61  A    between atoms: _141  and  _142
REMARK   62  A    between atoms: _141  and  _144
REMARK   63  A    between atoms: _144  and  _145
REMARK   64  A    between atoms: _148  and  _150
REMARK   65  A    between atoms: _150  and  _151
REMARK   66  A    between atoms: _154  and  _156
REMARK   67  A    between atoms: _156  and  _157
REMARK   68  A    between atoms: _156  and  _159
REMARK   69  A    between atoms: _159  and  _160
REMARK   70  A    between atoms: _163  and  _165
REMARK   71  A    between atoms: _165  and  _166
REMARK   72  A    between atoms: _165  and  _168
REMARK   73  A    between atoms: _168  and  _169
REMARK   74  A    between atoms: _169  and  _170
REMARK   75  A    between atoms: _170  and  _171
REMARK   76  A    between atoms: _171  and  _172
REMARK   77  A    between atoms: _176  and  _178
REMARK   78  A    between atoms: _178  and  _179
REMARK   79  A    between atoms: _178  and  _181
REMARK   80  A    between atoms: _181  and  _182
REMARK   81  A    between atoms: _185  and  _187
REMARK   82  A    between atoms: _187  and  _188
REMARK   83  A    between atoms: _187  and  _190
REMARK   84  A    between atoms: _190  and  _191
REMARK   85  A    between atoms: _194  and  _196
REMARK   86  A    between atoms: _196  and  _197
REMARK   87  A    between atoms: _196  and  _199
REMARK   88  A    between atoms: _202  and  _204
REMARK   89  A    between atoms: _204  and  _205
REMARK   90  A    between atoms: _204  and  _207
REMARK   91  A    between atoms: _207  and  _208
REMARK   92  A    between atoms: _211  and  _213
REMARK   93  A    between atoms: _213  and  _214
REMARK   94  A    between atoms: _213  and  _216
REMARK   95  A    between atoms: _216  and  _217
REMARK   96  A    between atoms: _220  and  _222
REMARK   97  A    between atoms: _222  and  _223
REMARK   98  A    between atoms: _225  and  _227
REMARK   99  A    between atoms: _227  and  _228
REMARK  100  A    between atoms: _227  and  _230
REMARK  101  A    between atoms: _230  and  _231
REMARK  102  A    between atoms: _234  and  _236
REMARK  103  A    between atoms: _236  and  _237
REMARK  104  A    between atoms: _239  and  _241
REMARK  105  A    between atoms: _241  and  _242
REMARK  106  A    between atoms: _241  and  _244
REMARK  107  A    between atoms: _244  and  _245
REMARK  108  A    between atoms: _245  and  _246
REMARK  109  A    between atoms: _248  and  _250
REMARK  110  A    between atoms: _250  and  _251
REMARK  111  A    between atoms: _250  and  _253
REMARK  112  A    between atoms: _253  and  _254
REMARK  113  A    between atoms: _257  and  _259
REMARK  114  A    between atoms: _259  and  _260
REMARK  115  A    between atoms: _259  and  _262
REMARK  116  A    between atoms: _262  and  _263
REMARK  117  A    between atoms: _263  and  _264
REMARK  118  A    between atoms: _264  and  _265
REMARK  119  A    between atoms: _265  and  _266
REMARK  120  A    between atoms: _270  and  _272
REMARK  121  A    between atoms: _272  and  _273
REMARK  122  A    between atoms: _276  and  _278
REMARK  123  A    between atoms: _278  and  _279
REMARK  124  A    between atoms: _278  and  _281
REMARK  125  A    between atoms: _281  and  _282
REMARK  126  A    between atoms: _285  and  _287
REMARK  127  A    between atoms: _287  and  _288
REMARK  128  A    between atoms: _287  and  _290
REMARK  129  A    between atoms: _290  and  _291
REMARK  130  A    between atoms: _294  and  _296
REMARK  131  A    between atoms: _296  and  _297
REMARK  132  A    between atoms: _296  and  _299
REMARK  133  A    between atoms: _299  and  _300
REMARK  134  A    between atoms: _303  and  _305
REMARK  135  A    between atoms: _305  and  _306
REMARK  136  A    between atoms: _305  and  _308
REMARK  137  A    between atoms: _308  and  _309
REMARK  138  A    between atoms: _314  and  _316
REMARK  139  A    between atoms: _316  and  _317
REMARK  140  A    between atoms: _316  and  _319
REMARK  141  A    between atoms: _319  and  _320
REMARK  142  A    between atoms: _325  and  _327
REMARK  143  A    between atoms: _327  and  _328
REMARK  144  A    between atoms: _327  and  _330
REMARK  145  A    between atoms: _330  and  _331
REMARK  146  A    between atoms: _334  and  _336
REMARK  147  A    between atoms: _336  and  _337
REMARK  148  A    between atoms: _339  and  _341
REMARK  149  A    between atoms: _341  and  _342
REMARK  150  A    between atoms: _341  and  _344
REMARK  151  A    between atoms: _344  and  _345
REMARK  152  A    between atoms: _348  and  _350
REMARK  153  A    between atoms: _350  and  _351
REMARK  154  A    between atoms: _350  and  _353
REMARK  155  A    between atoms: _353  and  _354
REMARK  156  A    between atoms: _357  and  _359
REMARK  157  A    between atoms: _359  and  _360
REMARK  158  A    between atoms: _363  and  _365
REMARK  159  A    between atoms: _365  and  _366
REMARK  160  A    between atoms: _365  and  _368
REMARK  161  A    between atoms: _368  and  _369
REMARK  162  A    between atoms: _369  and  _370
REMARK  163  A    between atoms: _370  and  _371
REMARK  164  A    between atoms: _371  and  _372
REMARK  165  A    between atoms: _376  and  _378
REMARK  166  A    between atoms: _378  and  _379
REMARK  167  A    between atoms: _378  and  _381
REMARK  168  A    between atoms: _381  and  _382
REMARK  169  A    between atoms: _384  and  _386
REMARK  170  A    between atoms: _386  and  _387
REMARK  171  A    between atoms: _389  and  _391
REMARK  172  A    between atoms: _391  and  _392
REMARK  173  A    between atoms: _391  and  _394
REMARK  174  A    between atoms: _394  and  _395
REMARK  175  A    between atoms: _398  and  _400
REMARK  176  A    between atoms: _400  and  _401
REMARK  177  A    between atoms: _400  and  _403
REMARK  178  A    between atoms: _403  and  _404
REMARK  179  A    between atoms: _410  and  _412
REMARK  180  A    between atoms: _412  and  _413
REMARK  181  A    between atoms: _415  and  _417
REMARK  182  A    between atoms: _417  and  _418
REMARK  183  A    between atoms: _417  and  _420
REMARK  184  A    between atoms: _423  and  _425
REMARK  185  A    between atoms: _425  and  _426
REMARK  186  A    between atoms: _428  and  _430
REMARK  187  A    between atoms: _430  and  _431
REMARK  188  A    between atoms: _430  and  _433
REMARK  189  A    between atoms: _433  and  _434
REMARK  190  A    between atoms: _440  and  _442
REMARK  191  A    between atoms: _442  and  _443
REMARK  192  A    between atoms: _442  and  _445
REMARK  193  A    between atoms: _445  and  _446
REMARK  194  A    between atoms: _451  and  _452
REMARK  195  A    between atoms: _454  and  _456
REMARK  196  A    between atoms: _456  and  _457
REMARK  197  A    between atoms: _456  and  _459
REMARK  198  A    between atoms: _459  and  _460
REMARK  199  A    between atoms: _462  and  _464
REMARK  200  A    between atoms: _464  and  _465
REMARK  201  A    between atoms: _468  and  _470
REMARK  202  A    between atoms: _470  and  _471
REMARK  203  A    between atoms: _470  and  _473
REMARK  204  A    between atoms: _473  and  _474
REMARK  205  A    between atoms: _479  and  _480
REMARK  206  A    between atoms: _482  and  _484
REMARK  207  A    between atoms: _484  and  _485
REMARK  208  A    between atoms: _484  and  _487
REMARK  209  A    between atoms: _490  and  _492
REMARK  210  A    between atoms: _492  and  _493
REMARK  211  A    between atoms: _492  and  _495
REMARK  212  A    between atoms: _495  and  _496
REMARK  213  A    between atoms: _499  and  _501
REMARK  214  A    between atoms: _501  and  _502
REMARK  215  A    between atoms: _501  and  _504
REMARK  216  A    between atoms: _507  and  _509
REMARK  217  A    between atoms: _509  and  _510
REMARK  218  A    between atoms: _509  and  _512
REMARK  219  A    between atoms: _512  and  _513
REMARK  220  A    between atoms: _516  and  _518
REMARK  221  A    between atoms: _518  and  _519
REMARK  222  A    between atoms: _518  and  _521
REMARK  223  A    between atoms: _521  and  _522
REMARK  224  A    between atoms: _525  and  _527
REMARK  225  A    between atoms: _527  and  _528
REMARK  226  A    between atoms: _527  and  _530
REMARK  227  A    between atoms: _530  and  _531
REMARK  228  A    between atoms: _531  and  _532
REMARK  229  A    between atoms: _532  and  _533
REMARK  230  A    between atoms: _533  and  _534
REMARK  231  A    between atoms: _538  and  _540
REMARK  232  A    between atoms: _540  and  _541
REMARK  233  A    between atoms: _540  and  _543
REMARK  234  A    between atoms: _543  and  _544
REMARK  235  A    between atoms: _549  and  _551
REMARK  236  A    between atoms: _551  and  _552
REMARK  237  A    between atoms: _555  and  _557
REMARK  238  A    between atoms: _557  and  _558
REMARK  239  A    between atoms: _557  and  _560
REMARK  240  A    between atoms: _560  and  _561
REMARK  241  A    between atoms: _571  and  _573
REMARK  242  A    between atoms: _573  and  _574
REMARK  243  A    between atoms: _573  and  _576
REMARK  244  A    between atoms: _576  and  _577
REMARK  245  A    between atoms: _577  and  _578
REMARK  246  A    between atoms: _581  and  _583
REMARK  247  A    between atoms: _583  and  _584
REMARK  248  A    between atoms: _583  and  _586
REMARK  249  A    between atoms: _586  and  _587
REMARK  250  A    between atoms: _589  and  _591
REMARK  251  A    between atoms: _591  and  _592
REMARK  252  A    between atoms: _591  and  _594
REMARK  253  A    between atoms: _594  and  _595
REMARK  254  A    between atoms: _601  and  _603
REMARK  255  A    between atoms: _603  and  _604
REMARK  256  A    between atoms: _603  and  _606
REMARK  257  A    between atoms: _606  and  _607
REMARK  258  A    between atoms: _610  and  _612
REMARK  259  A    between atoms: _612  and  _613
REMARK  260  A    between atoms: _612  and  _615
REMARK  261  A    between atoms: _618  and  _620
REMARK  262  A    between atoms: _620  and  _621
REMARK  263  A    between atoms: _620  and  _623
REMARK  264  A    between atoms: _623  and  _624
REMARK  265  A    between atoms: _624  and  _625
REMARK  266  A    between atoms: _627  and  _629
REMARK  267  A    between atoms: _629  and  _630
REMARK  268  A    between atoms: _632  and  _634
REMARK  269  A    between atoms: _634  and  _635
REMARK  270  A    between atoms: _634  and  _637
REMARK  271  A    between atoms: _637  and  _638
REMARK  272  A    between atoms: _641  and  _643
REMARK  273  A    between atoms: _643  and  _644
REMARK  274  A    between atoms: _643  and  _646
REMARK  275  A    between atoms: _646  and  _647
REMARK  276  A    between atoms: _647  and  _648
REMARK  277  A    between atoms: _648  and  _649
REMARK  278  A    between atoms: _649  and  _650
REMARK  279  A    between atoms: _654  and  _656
REMARK  280  A    between atoms: _656  and  _657
REMARK  281  A    between atoms: _656  and  _659
REMARK                            x       y       z     vdW  Elec       q    Type
REMARK                         _______ _______ _______ _____ _____    ______ ____
ROOT
ATOM      1  O   HOH     1       4.274   7.452  22.231  0.00  0.00    +0.000 OA
ENDROOT
TORSDOF 0
REMARK  Name = ../refined-set-2016/2yki/2yki_pocket.pdb
REMARK  281 active torsions:
REMARK  status: ('A' for Active; 'I' for Inactive)
REMARK    1  A    between atoms: _1  and  _3
REMARK    2  A    between atoms: _3  and  _4
REMARK    3  A    between atoms: _3  and  _6
REMARK    4  A    between atoms: _6  and  _7
REMARK    5  A    between atoms: _13  and  _15
REMARK    6  A    between atoms: _15  and  _16
REMARK    7  A    between atoms: _19  and  _21
REMARK    8  A    between atoms: _21  and  _22
REMARK    9  A    between atoms: _21  and  _24
REMARK   10  A    between atoms: _24  and  _25
REMARK   11  A    between atoms: _31  and  _33
REMARK   12  A    between atoms: _33  and  _34
REMARK   13  A    between atoms: _33  and  _36
REMARK   14  A    between atoms: _36  and  _37
REMARK   15  A    between atoms: _37  and  _38
REMARK   16  A    between atoms: _43  and  _45
REMARK   17  A    between atoms: _45  and  _46
REMARK   18  A    between atoms: _45  and  _48
REMARK   19  A    between atoms: _48  and  _49
REMARK   20  A    between atoms: _52  and  _54
REMARK   21  A    between atoms: _54  and  _55
REMARK   22  A    between atoms: _58  and  _60
REMARK   23  A    between atoms: _60  and  _61
REMARK   24  A    between atoms: _60  and  _63
REMARK   25  A    between atoms: _63  and  _64
REMARK   26  A    between atoms: _67  and  _69
REMARK   27  A    between atoms: _69  and  _70
REMARK   28  A    between atoms: _69  and  _72
REMARK   29  A    between atoms: _72  and  _73
REMARK   30  A    between atoms: _73  and  _74
REMARK   31  A    between atoms: _76  and  _78
REMARK   32  A    between atoms: _78  and  _79
REMARK   33  A    between atoms: _78  and  _81
REMARK   34  A    between atoms: _81  and  _82
REMARK   35  A    between atoms: _82  and  _83
REMARK   36  A    between atoms: _86  and  _88
REMARK   37  A    between atoms: _88  and  _89
REMARK   38  A    between atoms: _88  and  _91
REMARK   39  A    between atoms: _91  and  _92
REMARK   40  A    between atoms: _95  and  _97
REMARK   41  A    between atoms: _97  and  _98
REMARK   42  A    between atoms: _97  and  _100
REMARK   43  A    between atoms: _100  and  _101
REMARK   44  A    between atoms: _104  and  _106
REMARK   45  A    between atoms: _106  and  _107
REMARK   46  A    between atoms: _106  and  _109
REMARK   47  A    between atoms: _109  and  _110
REMARK   48  A    between atoms: _112  and  _114
REMARK   49  A    between atoms: _114  and  _115
REMARK   50  A    between atoms: _114  and  _117
REMARK   51  A    between atoms: _117  and  _118
REMARK   52  A    between atoms: _123  and  _125
REMARK   53  A    between atoms: _125  and  _126
REMARK   54  A    between atoms: _125  and  _128
REMARK   55  A    between atoms: _128  and  _129
REMARK   56  A    between atoms: _131  and  _133
REMARK   57  A    between atoms: _133  and  _134
REMARK   58  A    between atoms: _133  and  _136
REMARK   59  A    between atoms: _136  and  _137
REMARK   60  A    between atoms: _139  and  _141
REMARK   61  A    between atoms: _141  and  _142
REMARK   62  A    between atoms: _141  and  _144
REMARK   63  A    between atoms: _144  and  _145
REMARK   64  A    between atoms: _148  and  _150
REMARK   65  A    between atoms: _150  and  _151
REMARK   66  A    between atoms: _154  and  _156
REMARK   67  A    between atoms: _156  and  _157
REMARK   68  A    between atoms: _156  and  _159
REMARK   69  A    between atoms: _159  and  _160
REMARK   70  A    between atoms: _163  and  _165
REMARK   71  A    between atoms: _165  and  _166
REMARK   72  A    between atoms: _165  and  _168
REMARK   73  A    between atoms: _168  and  _169
REMARK   74  A    between atoms: _169  and  _170
REMARK   75  A    between atoms: _170  and  _171
REMARK   76  A    between atoms: _171  and  _172
REMARK   77  A    between atoms: _176  and  _178
REMARK   78  A    between atoms: _178  and  _179
REMARK   79  A    between atoms: _178  and  _181
REMARK   80  A    between atoms: _181  and  _182
REMARK   81  A    between atoms: _185  and  _187
REMARK   82  A    between atoms: _187  and  _188
REMARK   83  A    between atoms: _187  and  _190
REMARK   84  A    between atoms: _190  and  _191
REMARK   85  A    between atoms: _194  and  _196
REMARK   86  A    between atoms: _196  and  _197
REMARK   87  A    between atoms: _196  and  _199
REMARK   88  A    between atoms: _202  and  _204
REMARK   89  A    between atoms: _204  and  _205
REMARK   90  A    between atoms: _204  and  _207
REMARK   91  A    between atoms: _207  and  _208
REMARK   92  A    between atoms: _211  and  _213
REMARK   93  A    between atoms: _213  and  _214
REMARK   94  A    between atoms: _213  and  _216
REMARK   95  A    between atoms: _216  and  _217
REMARK   96  A    between atoms: _220  and  _222
REMARK   97  A    between atoms: _222  and  _223
REMARK   98  A    between atoms: _225  and  _227
REMARK   99  A    between atoms: _227  and  _228
REMARK  100  A    between atoms: _227  and  _230
REMARK  101  A    between atoms: _230  and  _231
REMARK  102  A    between atoms: _234  and  _236
REMARK  103  A    between atoms: _236  and  _237
REMARK  104  A    between atoms: _239  and  _241
REMARK  105  A    between atoms: _241  and  _242
REMARK  106  A    between atoms: _241  and  _244
REMARK  107  A    between atoms: _244  and  _245
REMARK  108  A    between atoms: _245  and  _246
REMARK  109  A    between atoms: _248  and  _250
REMARK  110  A    between atoms: _250  and  _251
REMARK  111  A    between atoms: _250  and  _253
REMARK  112  A    between atoms: _253  and  _254
REMARK  113  A    between atoms: _257  and  _259
REMARK  114  A    between atoms: _259  and  _260
REMARK  115  A    between atoms: _259  and  _262
REMARK  116  A    between atoms: _262  and  _263
REMARK  117  A    between atoms: _263  and  _264
REMARK  118  A    between atoms: _264  and  _265
REMARK  119  A    between atoms: _265  and  _266
REMARK  120  A    between atoms: _270  and  _272
REMARK  121  A    between atoms: _272  and  _273
REMARK  122  A    between atoms: _276  and  _278
REMARK  123  A    between atoms: _278  and  _279
REMARK  124  A    between atoms: _278  and  _281
REMARK  125  A    between atoms: _281  and  _282
REMARK  126  A    between atoms: _285  and  _287
REMARK  127  A    between atoms: _287  and  _288
REMARK  128  A    between atoms: _287  and  _290
REMARK  129  A    between atoms: _290  and  _291
REMARK  130  A    between atoms: _294  and  _296
REMARK  131  A    between atoms: _296  and  _297
REMARK  132  A    between atoms: _296  and  _299
REMARK  133  A    between atoms: _299  and  _300
REMARK  134  A    between atoms: _303  and  _305
REMARK  135  A    between atoms: _305  and  _306
REMARK  136  A    between atoms: _305  and  _308
REMARK  137  A    between atoms: _308  and  _309
REMARK  138  A    between atoms: _314  and  _316
REMARK  139  A    between atoms: _316  and  _317
REMARK  140  A    between atoms: _316  and  _319
REMARK  141  A    between atoms: _319  and  _320
REMARK  142  A    between atoms: _325  and  _327
REMARK  143  A    between atoms: _327  and  _328
REMARK  144  A    between atoms: _327  and  _330
REMARK  145  A    between atoms: _330  and  _331
REMARK  146  A    between atoms: _334  and  _336
REMARK  147  A    between atoms: _336  and  _337
REMARK  148  A    between atoms: _339  and  _341
REMARK  149  A    between atoms: _341  and  _342
REMARK  150  A    between atoms: _341  and  _344
REMARK  151  A    between atoms: _344  and  _345
REMARK  152  A    between atoms: _348  and  _350
REMARK  153  A    between atoms: _350  and  _351
REMARK  154  A    between atoms: _350  and  _353
REMARK  155  A    between atoms: _353  and  _354
REMARK  156  A    between atoms: _357  and  _359
REMARK  157  A    between atoms: _359  and  _360
REMARK  158  A    between atoms: _363  and  _365
REMARK  159  A    between atoms: _365  and  _366
REMARK  160  A    between atoms: _365  and  _368
REMARK  161  A    between atoms: _368  and  _369
REMARK  162  A    between atoms: _369  and  _370
REMARK  163  A    between atoms: _370  and  _371
REMARK  164  A    between atoms: _371  and  _372
REMARK  165  A    between atoms: _376  and  _378
REMARK  166  A    between atoms: _378  and  _379
REMARK  167  A    between atoms: _378  and  _381
REMARK  168  A    between atoms: _381  and  _382
REMARK  169  A    between atoms: _384  and  _386
REMARK  170  A    between atoms: _386  and  _387
REMARK  171  A    between atoms: _389  and  _391
REMARK  172  A    between atoms: _391  and  _392
REMARK  173  A    between atoms: _391  and  _394
REMARK  174  A    between atoms: _394  and  _395
REMARK  175  A    between atoms: _398  and  _400
REMARK  176  A    between atoms: _400  and  _401
REMARK  177  A    between atoms: _400  and  _403
REMARK  178  A    between atoms: _403  and  _404
REMARK  179  A    between atoms: _410  and  _412
REMARK  180  A    between atoms: _412  and  _413
REMARK  181  A    between atoms: _415  and  _417
REMARK  182  A    between atoms: _417  and  _418
REMARK  183  A    between atoms: _417  and  _420
REMARK  184  A    between atoms: _423  and  _425
REMARK  185  A    between atoms: _425  and  _426
REMARK  186  A    between atoms: _428  and  _430
REMARK  187  A    between atoms: _430  and  _431
REMARK  188  A    between atoms: _430  and  _433
REMARK  189  A    between atoms: _433  and  _434
REMARK  190  A    between atoms: _440  and  _442
REMARK  191  A    between atoms: _442  and  _443
REMARK  192  A    between atoms: _442  and  _445
REMARK  193  A    between atoms: _445  and  _446
REMARK  194  A    between atoms: _451  and  _452
REMARK  195  A    between atoms: _454  and  _456
REMARK  196  A    between atoms: _456  and  _457
REMARK  197  A    between atoms: _456  and  _459
REMARK  198  A    between atoms: _459  and  _460
REMARK  199  A    between atoms: _462  and  _464
REMARK  200  A    between atoms: _464  and  _465
REMARK  201  A    between atoms: _468  and  _470
REMARK  202  A    between atoms: _470  and  _471
REMARK  203  A    between atoms: _470  and  _473
REMARK  204  A    between atoms: _473  and  _474
REMARK  205  A    between atoms: _479  and  _480
REMARK  206  A    between atoms: _482  and  _484
REMARK  207  A    between atoms: _484  and  _485
REMARK  208  A    between atoms: _484  and  _487
REMARK  209  A    between atoms: _490  and  _492
REMARK  210  A    between atoms: _492  and  _493
REMARK  211  A    between atoms: _492  and  _495
REMARK  212  A    between atoms: _495  and  _496
REMARK  213  A    between atoms: _499  and  _501
REMARK  214  A    between atoms: _501  and  _502
REMARK  215  A    between atoms: _501  and  _504
REMARK  216  A    between atoms: _507  and  _509
REMARK  217  A    between atoms: _509  and  _510
REMARK  218  A    between atoms: _509  and  _512
REMARK  219  A    between atoms: _512  and  _513
REMARK  220  A    between atoms: _516  and  _518
REMARK  221  A    between atoms: _518  and  _519
REMARK  222  A    between atoms: _518  and  _521
REMARK  223  A    between atoms: _521  and  _522
REMARK  224  A    between atoms: _525  and  _527
REMARK  225  A    between atoms: _527  and  _528
REMARK  226  A    between atoms: _527  and  _530
REMARK  227  A    between atoms: _530  and  _531
REMARK  228  A    between atoms: _531  and  _532
REMARK  229  A    between atoms: _532  and  _533
REMARK  230  A    between atoms: _533  and  _534
REMARK  231  A    between atoms: _538  and  _540
REMARK  232  A    between atoms: _540  and  _541
REMARK  233  A    between atoms: _540  and  _543
REMARK  234  A    between atoms: _543  and  _544
REMARK  235  A    between atoms: _549  and  _551
REMARK  236  A    between atoms: _551  and  _552
REMARK  237  A    between atoms: _555  and  _557
REMARK  238  A    between atoms: _557  and  _558
REMARK  239  A    between atoms: _557  and  _560
REMARK  240  A    between atoms: _560  and  _561
REMARK  241  A    between atoms: _571  and  _573
REMARK  242  A    between atoms: _573  and  _574
REMARK  243  A    between atoms: _573  and  _576
REMARK  244  A    between atoms: _576  and  _577
REMARK  245  A    between atoms: _577  and  _578
REMARK  246  A    between atoms: _581  and  _583
REMARK  247  A    between atoms: _583  and  _584
REMARK  248  A    between atoms: _583  and  _586
REMARK  249  A    between atoms: _586  and  _587
REMARK  250  A    between atoms: _589  and  _591
REMARK  251  A    between atoms: _591  and  _592
REMARK  252  A    between atoms: _591  and  _594
REMARK  253  A    between atoms: _594  and  _595
REMARK  254  A    between atoms: _601  and  _603
REMARK  255  A    between atoms: _603  and  _604
REMARK  256  A    between atoms: _603  and  _606
REMARK  257  A    between atoms: _606  and  _607
REMARK  258  A    between atoms: _610  and  _612
REMARK  259  A    between atoms: _612  and  _613
REMARK  260  A    between atoms: _612  and  _615
REMARK  261  A    between atoms: _618  and  _620
REMARK  262  A    between atoms: _620  and  _621
REMARK  263  A    between atoms: _620  and  _623
REMARK  264  A    between atoms: _623  and  _624
REMARK  265  A    between atoms: _624  and  _625
REMARK  266  A    between atoms: _627  and  _629
REMARK  267  A    between atoms: _629  and  _630
REMARK  268  A    between atoms: _632  and  _634
REMARK  269  A    between atoms: _634  and  _635
REMARK  270  A    between atoms: _634  and  _637
REMARK  271  A    between atoms: _637  and  _638
REMARK  272  A    between atoms: _641  and  _643
REMARK  273  A    between atoms: _643  and  _644
REMARK  274  A    between atoms: _643  and  _646
REMARK  275  A    between atoms: _646  and  _647
REMARK  276  A    between atoms: _647  and  _648
REMARK  277  A    between atoms: _648  and  _649
REMARK  278  A    between atoms: _649  and  _650
REMARK  279  A    between atoms: _654  and  _656
REMARK  280  A    between atoms: _656  and  _657
REMARK  281  A    between atoms: _656  and  _659
REMARK                            x       y       z     vdW  Elec       q    Type
REMARK                         _______ _______ _______ _____ _____    ______ ____
ROOT
ATOM      1  O   HOH     1      -4.394  14.498  22.948  0.00  0.00    +0.000 OA
ENDROOT
TORSDOF 0
REMARK  Name = ../refined-set-2016/2yki/2yki_pocket.pdb
REMARK  281 active torsions:
REMARK  status: ('A' for Active; 'I' for Inactive)
REMARK    1  A    between atoms: _1  and  _3
REMARK    2  A    between atoms: _3  and  _4
REMARK    3  A    between atoms: _3  and  _6
REMARK    4  A    between atoms: _6  and  _7
REMARK    5  A    between atoms: _13  and  _15
REMARK    6  A    between atoms: _15  and  _16
REMARK    7  A    between atoms: _19  and  _21
REMARK    8  A    between atoms: _21  and  _22
REMARK    9  A    between atoms: _21  and  _24
REMARK   10  A    between atoms: _24  and  _25
REMARK   11  A    between atoms: _31  and  _33
REMARK   12  A    between atoms: _33  and  _34
REMARK   13  A    between atoms: _33  and  _36
REMARK   14  A    between atoms: _36  and  _37
REMARK   15  A    between atoms: _37  and  _38
REMARK   16  A    between atoms: _43  and  _45
REMARK   17  A    between atoms: _45  and  _46
REMARK   18  A    between atoms: _45  and  _48
REMARK   19  A    between atoms: _48  and  _49
REMARK   20  A    between atoms: _52  and  _54
REMARK   21  A    between atoms: _54  and  _55
REMARK   22  A    between atoms: _58  and  _60
REMARK   23  A    between atoms: _60  and  _61
REMARK   24  A    between atoms: _60  and  _63
REMARK   25  A    between atoms: _63  and  _64
REMARK   26  A    between atoms: _67  and  _69
REMARK   27  A    between atoms: _69  and  _70
REMARK   28  A    between atoms: _69  and  _72
REMARK   29  A    between atoms: _72  and  _73
REMARK   30  A    between atoms: _73  and  _74
REMARK   31  A    between atoms: _76  and  _78
REMARK   32  A    between atoms: _78  and  _79
REMARK   33  A    between atoms: _78  and  _81
REMARK   34  A    between atoms: _81  and  _82
REMARK   35  A    between atoms: _82  and  _83
REMARK   36  A    between atoms: _86  and  _88
REMARK   37  A    between atoms: _88  and  _89
REMARK   38  A    between atoms: _88  and  _91
REMARK   39  A    between atoms: _91  and  _92
REMARK   40  A    between atoms: _95  and  _97
REMARK   41  A    between atoms: _97  and  _98
REMARK   42  A    between atoms: _97  and  _100
REMARK   43  A    between atoms: _100  and  _101
REMARK   44  A    between atoms: _104  and  _106
REMARK   45  A    between atoms: _106  and  _107
REMARK   46  A    between atoms: _106  and  _109
REMARK   47  A    between atoms: _109  and  _110
REMARK   48  A    between atoms: _112  and  _114
REMARK   49  A    between atoms: _114  and  _115
REMARK   50  A    between atoms: _114  and  _117
REMARK   51  A    between atoms: _117  and  _118
REMARK   52  A    between atoms: _123  and  _125
REMARK   53  A    between atoms: _125  and  _126
REMARK   54  A    between atoms: _125  and  _128
REMARK   55  A    between atoms: _128  and  _129
REMARK   56  A    between atoms: _131  and  _133
REMARK   57  A    between atoms: _133  and  _134
REMARK   58  A    between atoms: _133  and  _136
REMARK   59  A    between atoms: _136  and  _137
REMARK   60  A    between atoms: _139  and  _141
REMARK   61  A    between atoms: _141  and  _142
REMARK   62  A    between atoms: _141  and  _144
REMARK   63  A    between atoms: _144  and  _145
REMARK   64  A    between atoms: _148  and  _150
REMARK   65  A    between atoms: _150  and  _151
REMARK   66  A    between atoms: _154  and  _156
REMARK   67  A    between atoms: _156  and  _157
REMARK   68  A    between atoms: _156  and  _159
REMARK   69  A    between atoms: _159  and  _160
REMARK   70  A    between atoms: _163  and  _165
REMARK   71  A    between atoms: _165  and  _166
REMARK   72  A    between atoms: _165  and  _168
REMARK   73  A    between atoms: _168  and  _169
REMARK   74  A    between atoms: _169  and  _170
REMARK   75  A    between atoms: _170  and  _171
REMARK   76  A    between atoms: _171  and  _172
REMARK   77  A    between atoms: _176  and  _178
REMARK   78  A    between atoms: _178  and  _179
REMARK   79  A    between atoms: _178  and  _181
REMARK   80  A    between atoms: _181  and  _182
REMARK   81  A    between atoms: _185  and  _187
REMARK   82  A    between atoms: _187  and  _188
REMARK   83  A    between atoms: _187  and  _190
REMARK   84  A    between atoms: _190  and  _191
REMARK   85  A    between atoms: _194  and  _196
REMARK   86  A    between atoms: _196  and  _197
REMARK   87  A    between atoms: _196  and  _199
REMARK   88  A    between atoms: _202  and  _204
REMARK   89  A    between atoms: _204  and  _205
REMARK   90  A    between atoms: _204  and  _207
REMARK   91  A    between atoms: _207  and  _208
REMARK   92  A    between atoms: _211  and  _213
REMARK   93  A    between atoms: _213  and  _214
REMARK   94  A    between atoms: _213  and  _216
REMARK   95  A    between atoms: _216  and  _217
REMARK   96  A    between atoms: _220  and  _222
REMARK   97  A    between atoms: _222  and  _223
REMARK   98  A    between atoms: _225  and  _227
REMARK   99  A    between atoms: _227  and  _228
REMARK  100  A    between atoms: _227  and  _230
REMARK  101  A    between atoms: _230  and  _231
REMARK  102  A    between atoms: _234  and  _236
REMARK  103  A    between atoms: _236  and  _237
REMARK  104  A    between atoms: _239  and  _241
REMARK  105  A    between atoms: _241  and  _242
REMARK  106  A    between atoms: _241  and  _244
REMARK  107  A    between atoms: _244  and  _245
REMARK  108  A    between atoms: _245  and  _246
REMARK  109  A    between atoms: _248  and  _250
REMARK  110  A    between atoms: _250  and  _251
REMARK  111  A    between atoms: _250  and  _253
REMARK  112  A    between atoms: _253  and  _254
REMARK  113  A    between atoms: _257  and  _259
REMARK  114  A    between atoms: _259  and  _260
REMARK  115  A    between atoms: _259  and  _262
REMARK  116  A    between atoms: _262  and  _263
REMARK  117  A    between atoms: _263  and  _264
REMARK  118  A    between atoms: _264  and  _265
REMARK  119  A    between atoms: _265  and  _266
REMARK  120  A    between atoms: _270  and  _272
REMARK  121  A    between atoms: _272  and  _273
REMARK  122  A    between atoms: _276  and  _278
REMARK  123  A    between atoms: _278  and  _279
REMARK  124  A    between atoms: _278  and  _281
REMARK  125  A    between atoms: _281  and  _282
REMARK  126  A    between atoms: _285  and  _287
REMARK  127  A    between atoms: _287  and  _288
REMARK  128  A    between atoms: _287  and  _290
REMARK  129  A    between atoms: _290  and  _291
REMARK  130  A    between atoms: _294  and  _296
REMARK  131  A    between atoms: _296  and  _297
REMARK  132  A    between atoms: _296  and  _299
REMARK  133  A    between atoms: _299  and  _300
REMARK  134  A    between atoms: _303  and  _305
REMARK  135  A    between atoms: _305  and  _306
REMARK  136  A    between atoms: _305  and  _308
REMARK  137  A    between atoms: _308  and  _309
REMARK  138  A    between atoms: _314  and  _316
REMARK  139  A    between atoms: _316  and  _317
REMARK  140  A    between atoms: _316  and  _319
REMARK  141  A    between atoms: _319  and  _320
REMARK  142  A    between atoms: _325  and  _327
REMARK  143  A    between atoms: _327  and  _328
REMARK  144  A    between atoms: _327  and  _330
REMARK  145  A    between atoms: _330  and  _331
REMARK  146  A    between atoms: _334  and  _336
REMARK  147  A    between atoms: _336  and  _337
REMARK  148  A    between atoms: _339  and  _341
REMARK  149  A    between atoms: _341  and  _342
REMARK  150  A    between atoms: _341  and  _344
REMARK  151  A    between atoms: _344  and  _345
REMARK  152  A    between atoms: _348  and  _350
REMARK  153  A    between atoms: _350  and  _351
REMARK  154  A    between atoms: _350  and  _353
REMARK  155  A    between atoms: _353  and  _354
REMARK  156  A    between atoms: _357  and  _359
REMARK  157  A    between atoms: _359  and  _360
REMARK  158  A    between atoms: _363  and  _365
REMARK  159  A    between atoms: _365  and  _366
REMARK  160  A    between atoms: _365  and  _368
REMARK  161  A    between atoms: _368  and  _369
REMARK  162  A    between atoms: _369  and  _370
REMARK  163  A    between atoms: _370  and  _371
REMARK  164  A    between atoms: _371  and  _372
REMARK  165  A    between atoms: _376  and  _378
REMARK  166  A    between atoms: _378  and  _379
REMARK  167  A    between atoms: _378  and  _381
REMARK  168  A    between atoms: _381  and  _382
REMARK  169  A    between atoms: _384  and  _386
REMARK  170  A    between atoms: _386  and  _387
REMARK  171  A    between atoms: _389  and  _391
REMARK  172  A    between atoms: _391  and  _392
REMARK  173  A    between atoms: _391  and  _394
REMARK  174  A    between atoms: _394  and  _395
REMARK  175  A    between atoms: _398  and  _400
REMARK  176  A    between atoms: _400  and  _401
REMARK  177  A    between atoms: _400  and  _403
REMARK  178  A    between atoms: _403  and  _404
REMARK  179  A    between atoms: _410  and  _412
REMARK  180  A    between atoms: _412  and  _413
REMARK  181  A    between atoms: _415  and  _417
REMARK  182  A    between atoms: _417  and  _418
REMARK  183  A    between atoms: _417  and  _420
REMARK  184  A    between atoms: _423  and  _425
REMARK  185  A    between atoms: _425  and  _426
REMARK  186  A    between atoms: _428  and  _430
REMARK  187  A    between atoms: _430  and  _431
REMARK  188  A    between atoms: _430  and  _433
REMARK  189  A    between atoms: _433  and  _434
REMARK  190  A    between atoms: _440  and  _442
REMARK  191  A    between atoms: _442  and  _443
REMARK  192  A    between atoms: _442  and  _445
REMARK  193  A    between atoms: _445  and  _446
REMARK  194  A    between atoms: _451  and  _452
REMARK  195  A    between atoms: _454  and  _456
REMARK  196  A    between atoms: _456  and  _457
REMARK  197  A    between atoms: _456  and  _459
REMARK  198  A    between atoms: _459  and  _460
REMARK  199  A    between atoms: _462  and  _464
REMARK  200  A    between atoms: _464  and  _465
REMARK  201  A    between atoms: _468  and  _470
REMARK  202  A    between atoms: _470  and  _471
REMARK  203  A    between atoms: _470  and  _473
REMARK  204  A    between atoms: _473  and  _474
REMARK  205  A    between atoms: _479  and  _480
REMARK  206  A    between atoms: _482  and  _484
REMARK  207  A    between atoms: _484  and  _485
REMARK  208  A    between atoms: _484  and  _487
REMARK  209  A    between atoms: _490  and  _492
REMARK  210  A    between atoms: _492  and  _493
REMARK  211  A    between atoms: _492  and  _495
REMARK  212  A    between atoms: _495  and  _496
REMARK  213  A    between atoms: _499  and  _501
REMARK  214  A    between atoms: _501  and  _502
REMARK  215  A    between atoms: _501  and  _504
REMARK  216  A    between atoms: _507  and  _509
REMARK  217  A    between atoms: _509  and  _510
REMARK  218  A    between atoms: _509  and  _512
REMARK  219  A    between atoms: _512  and  _513
REMARK  220  A    between atoms: _516  and  _518
REMARK  221  A    between atoms: _518  and  _519
REMARK  222  A    between atoms: _518  and  _521
REMARK  223  A    between atoms: _521  and  _522
REMARK  224  A    between atoms: _525  and  _527
REMARK  225  A    between atoms: _527  and  _528
REMARK  226  A    between atoms: _527  and  _530
REMARK  227  A    between atoms: _530  and  _531
REMARK  228  A    between atoms: _531  and  _532
REMARK  229  A    between atoms: _532  and  _533
REMARK  230  A    between atoms: _533  and  _534
REMARK  231  A    between atoms: _538  and  _540
REMARK  232  A    between atoms: _540  and  _541
REMARK  233  A    between atoms: _540  and  _543
REMARK  234  A    between atoms: _543  and  _544
REMARK  235  A    between atoms: _549  and  _551
REMARK  236  A    between atoms: _551  and  _552
REMARK  237  A    between atoms: _555  and  _557
REMARK  238  A    between atoms: _557  and  _558
REMARK  239  A    between atoms: _557  and  _560
REMARK  240  A    between atoms: _560  and  _561
REMARK  241  A    between atoms: _571  and  _573
REMARK  242  A    between atoms: _573  and  _574
REMARK  243  A    between atoms: _573  and  _576
REMARK  244  A    between atoms: _576  and  _577
REMARK  245  A    between atoms: _577  and  _578
REMARK  246  A    between atoms: _581  and  _583
REMARK  247  A    between atoms: _583  and  _584
REMARK  248  A    between atoms: _583  and  _586
REMARK  249  A    between atoms: _586  and  _587
REMARK  250  A    between atoms: _589  and  _591
REMARK  251  A    between atoms: _591  and  _592
REMARK  252  A    between atoms: _591  and  _594
REMARK  253  A    between atoms: _594  and  _595
REMARK  254  A    between atoms: _601  and  _603
REMARK  255  A    between atoms: _603  and  _604
REMARK  256  A    between atoms: _603  and  _606
REMARK  257  A    between atoms: _606  and  _607
REMARK  258  A    between atoms: _610  and  _612
REMARK  259  A    between atoms: _612  and  _613
REMARK  260  A    between atoms: _612  and  _615
REMARK  261  A    between atoms: _618  and  _620
REMARK  262  A    between atoms: _620  and  _621
REMARK  263  A    between atoms: _620  and  _623
REMARK  264  A    between atoms: _623  and  _624
REMARK  265  A    between atoms: _624  and  _625
REMARK  266  A    between atoms: _627  and  _629
REMARK  267  A    between atoms: _629  and  _630
REMARK  268  A    between atoms: _632  and  _634
REMARK  269  A    between atoms: _634  and  _635
REMARK  270  A    between atoms: _634  and  _637
REMARK  271  A    between atoms: _637  and  _638
REMARK  272  A    between atoms: _641  and  _643
REMARK  273  A    between atoms: _643  and  _644
REMARK  274  A    between atoms: _643  and  _646
REMARK  275  A    between atoms: _646  and  _647
REMARK  276  A    between atoms: _647  and  _648
REMARK  277  A    between atoms: _648  and  _649
REMARK  278  A    between atoms: _649  and  _650
REMARK  279  A    between atoms: _654  and  _656
REMARK  280  A    between atoms: _656  and  _657
REMARK  281  A    between atoms: _656  and  _659
REMARK                            x       y       z     vdW  Elec       q    Type
REMARK                         _______ _______ _______ _____ _____    ______ ____
ROOT
ATOM      1  O   HOH     1      -0.477   5.224  26.522  0.00  0.00    +0.000 OA
ENDROOT
TORSDOF 0
REMARK  Name = ../refined-set-2016/2yki/2yki_pocket.pdb
REMARK  281 active torsions:
REMARK  status: ('A' for Active; 'I' for Inactive)
REMARK    1  A    between atoms: _1  and  _3
REMARK    2  A    between atoms: _3  and  _4
REMARK    3  A    between atoms: _3  and  _6
REMARK    4  A    between atoms: _6  and  _7
REMARK    5  A    between atoms: _13  and  _15
REMARK    6  A    between atoms: _15  and  _16
REMARK    7  A    between atoms: _19  and  _21
REMARK    8  A    between atoms: _21  and  _22
REMARK    9  A    between atoms: _21  and  _24
REMARK   10  A    between atoms: _24  and  _25
REMARK   11  A    between atoms: _31  and  _33
REMARK   12  A    between atoms: _33  and  _34
REMARK   13  A    between atoms: _33  and  _36
REMARK   14  A    between atoms: _36  and  _37
REMARK   15  A    between atoms: _37  and  _38
REMARK   16  A    between atoms: _43  and  _45
REMARK   17  A    between atoms: _45  and  _46
REMARK   18  A    between atoms: _45  and  _48
REMARK   19  A    between atoms: _48  and  _49
REMARK   20  A    between atoms: _52  and  _54
REMARK   21  A    between atoms: _54  and  _55
REMARK   22  A    between atoms: _58  and  _60
REMARK   23  A    between atoms: _60  and  _61
REMARK   24  A    between atoms: _60  and  _63
REMARK   25  A    between atoms: _63  and  _64
REMARK   26  A    between atoms: _67  and  _69
REMARK   27  A    between atoms: _69  and  _70
REMARK   28  A    between atoms: _69  and  _72
REMARK   29  A    between atoms: _72  and  _73
REMARK   30  A    between atoms: _73  and  _74
REMARK   31  A    between atoms: _76  and  _78
REMARK   32  A    between atoms: _78  and  _79
REMARK   33  A    between atoms: _78  and  _81
REMARK   34  A    between atoms: _81  and  _82
REMARK   35  A    between atoms: _82  and  _83
REMARK   36  A    between atoms: _86  and  _88
REMARK   37  A    between atoms: _88  and  _89
REMARK   38  A    between atoms: _88  and  _91
REMARK   39  A    between atoms: _91  and  _92
REMARK   40  A    between atoms: _95  and  _97
REMARK   41  A    between atoms: _97  and  _98
REMARK   42  A    between atoms: _97  and  _100
REMARK   43  A    between atoms: _100  and  _101
REMARK   44  A    between atoms: _104  and  _106
REMARK   45  A    between atoms: _106  and  _107
REMARK   46  A    between atoms: _106  and  _109
REMARK   47  A    between atoms: _109  and  _110
REMARK   48  A    between atoms: _112  and  _114
REMARK   49  A    between atoms: _114  and  _115
REMARK   50  A    between atoms: _114  and  _117
REMARK   51  A    between atoms: _117  and  _118
REMARK   52  A    between atoms: _123  and  _125
REMARK   53  A    between atoms: _125  and  _126
REMARK   54  A    between atoms: _125  and  _128
REMARK   55  A    between atoms: _128  and  _129
REMARK   56  A    between atoms: _131  and  _133
REMARK   57  A    between atoms: _133  and  _134
REMARK   58  A    between atoms: _133  and  _136
REMARK   59  A    between atoms: _136  and  _137
REMARK   60  A    between atoms: _139  and  _141
REMARK   61  A    between atoms: _141  and  _142
REMARK   62  A    between atoms: _141  and  _144
REMARK   63  A    between atoms: _144  and  _145
REMARK   64  A    between atoms: _148  and  _150
REMARK   65  A    between atoms: _150  and  _151
REMARK   66  A    between atoms: _154  and  _156
REMARK   67  A    between atoms: _156  and  _157
REMARK   68  A    between atoms: _156  and  _159
REMARK   69  A    between atoms: _159  and  _160
REMARK   70  A    between atoms: _163  and  _165
REMARK   71  A    between atoms: _165  and  _166
REMARK   72  A    between atoms: _165  and  _168
REMARK   73  A    between atoms: _168  and  _169
REMARK   74  A    between atoms: _169  and  _170
REMARK   75  A    between atoms: _170  and  _171
REMARK   76  A    between atoms: _171  and  _172
REMARK   77  A    between atoms: _176  and  _178
REMARK   78  A    between atoms: _178  and  _179
REMARK   79  A    between atoms: _178  and  _181
REMARK   80  A    between atoms: _181  and  _182
REMARK   81  A    between atoms: _185  and  _187
REMARK   82  A    between atoms: _187  and  _188
REMARK   83  A    between atoms: _187  and  _190
REMARK   84  A    between atoms: _190  and  _191
REMARK   85  A    between atoms: _194  and  _196
REMARK   86  A    between atoms: _196  and  _197
REMARK   87  A    between atoms: _196  and  _199
REMARK   88  A    between atoms: _202  and  _204
REMARK   89  A    between atoms: _204  and  _205
REMARK   90  A    between atoms: _204  and  _207
REMARK   91  A    between atoms: _207  and  _208
REMARK   92  A    between atoms: _211  and  _213
REMARK   93  A    between atoms: _213  and  _214
REMARK   94  A    between atoms: _213  and  _216
REMARK   95  A    between atoms: _216  and  _217
REMARK   96  A    between atoms: _220  and  _222
REMARK   97  A    between atoms: _222  and  _223
REMARK   98  A    between atoms: _225  and  _227
REMARK   99  A    between atoms: _227  and  _228
REMARK  100  A    between atoms: _227  and  _230
REMARK  101  A    between atoms: _230  and  _231
REMARK  102  A    between atoms: _234  and  _236
REMARK  103  A    between atoms: _236  and  _237
REMARK  104  A    between atoms: _239  and  _241
REMARK  105  A    between atoms: _241  and  _242
REMARK  106  A    between atoms: _241  and  _244
REMARK  107  A    between atoms: _244  and  _245
REMARK  108  A    between atoms: _245  and  _246
REMARK  109  A    between atoms: _248  and  _250
REMARK  110  A    between atoms: _250  and  _251
REMARK  111  A    between atoms: _250  and  _253
REMARK  112  A    between atoms: _253  and  _254
REMARK  113  A    between atoms: _257  and  _259
REMARK  114  A    between atoms: _259  and  _260
REMARK  115  A    between atoms: _259  and  _262
REMARK  116  A    between atoms: _262  and  _263
REMARK  117  A    between atoms: _263  and  _264
REMARK  118  A    between atoms: _264  and  _265
REMARK  119  A    between atoms: _265  and  _266
REMARK  120  A    between atoms: _270  and  _272
REMARK  121  A    between atoms: _272  and  _273
REMARK  122  A    between atoms: _276  and  _278
REMARK  123  A    between atoms: _278  and  _279
REMARK  124  A    between atoms: _278  and  _281
REMARK  125  A    between atoms: _281  and  _282
REMARK  126  A    between atoms: _285  and  _287
REMARK  127  A    between atoms: _287  and  _288
REMARK  128  A    between atoms: _287  and  _290
REMARK  129  A    between atoms: _290  and  _291
REMARK  130  A    between atoms: _294  and  _296
REMARK  131  A    between atoms: _296  and  _297
REMARK  132  A    between atoms: _296  and  _299
REMARK  133  A    between atoms: _299  and  _300
REMARK  134  A    between atoms: _303  and  _305
REMARK  135  A    between atoms: _305  and  _306
REMARK  136  A    between atoms: _305  and  _308
REMARK  137  A    between atoms: _308  and  _309
REMARK  138  A    between atoms: _314  and  _316
REMARK  139  A    between atoms: _316  and  _317
REMARK  140  A    between atoms: _316  and  _319
REMARK  141  A    between atoms: _319  and  _320
REMARK  142  A    between atoms: _325  and  _327
REMARK  143  A    between atoms: _327  and  _328
REMARK  144  A    between atoms: _327  and  _330
REMARK  145  A    between atoms: _330  and  _331
REMARK  146  A    between atoms: _334  and  _336
REMARK  147  A    between atoms: _336  and  _337
REMARK  148  A    between atoms: _339  and  _341
REMARK  149  A    between atoms: _341  and  _342
REMARK  150  A    between atoms: _341  and  _344
REMARK  151  A    between atoms: _344  and  _345
REMARK  152  A    between atoms: _348  and  _350
REMARK  153  A    between atoms: _350  and  _351
REMARK  154  A    between atoms: _350  and  _353
REMARK  155  A    between atoms: _353  and  _354
REMARK  156  A    between atoms: _357  and  _359
REMARK  157  A    between atoms: _359  and  _360
REMARK  158  A    between atoms: _363  and  _365
REMARK  159  A    between atoms: _365  and  _366
REMARK  160  A    between atoms: _365  and  _368
REMARK  161  A    between atoms: _368  and  _369
REMARK  162  A    between atoms: _369  and  _370
REMARK  163  A    between atoms: _370  and  _371
REMARK  164  A    between atoms: _371  and  _372
REMARK  165  A    between atoms: _376  and  _378
REMARK  166  A    between atoms: _378  and  _379
REMARK  167  A    between atoms: _378  and  _381
REMARK  168  A    between atoms: _381  and  _382
REMARK  169  A    between atoms: _384  and  _386
REMARK  170  A    between atoms: _386  and  _387
REMARK  171  A    between atoms: _389  and  _391
REMARK  172  A    between atoms: _391  and  _392
REMARK  173  A    between atoms: _391  and  _394
REMARK  174  A    between atoms: _394  and  _395
REMARK  175  A    between atoms: _398  and  _400
REMARK  176  A    between atoms: _400  and  _401
REMARK  177  A    between atoms: _400  and  _403
REMARK  178  A    between atoms: _403  and  _404
REMARK  179  A    between atoms: _410  and  _412
REMARK  180  A    between atoms: _412  and  _413
REMARK  181  A    between atoms: _415  and  _417
REMARK  182  A    between atoms: _417  and  _418
REMARK  183  A    between atoms: _417  and  _420
REMARK  184  A    between atoms: _423  and  _425
REMARK  185  A    between atoms: _425  and  _426
REMARK  186  A    between atoms: _428  and  _430
REMARK  187  A    between atoms: _430  and  _431
REMARK  188  A    between atoms: _430  and  _433
REMARK  189  A    between atoms: _433  and  _434
REMARK  190  A    between atoms: _440  and  _442
REMARK  191  A    between atoms: _442  and  _443
REMARK  192  A    between atoms: _442  and  _445
REMARK  193  A    between atoms: _445  and  _446
REMARK  194  A    between atoms: _451  and  _452
REMARK  195  A    between atoms: _454  and  _456
REMARK  196  A    between atoms: _456  and  _457
REMARK  197  A    between atoms: _456  and  _459
REMARK  198  A    between atoms: _459  and  _460
REMARK  199  A    between atoms: _462  and  _464
REMARK  200  A    between atoms: _464  and  _465
REMARK  201  A    between atoms: _468  and  _470
REMARK  202  A    between atoms: _470  and  _471
REMARK  203  A    between atoms: _470  and  _473
REMARK  204  A    between atoms: _473  and  _474
REMARK  205  A    between atoms: _479  and  _480
REMARK  206  A    between atoms: _482  and  _484
REMARK  207  A    between atoms: _484  and  _485
REMARK  208  A    between atoms: _484  and  _487
REMARK  209  A    between atoms: _490  and  _492
REMARK  210  A    between atoms: _492  and  _493
REMARK  211  A    between atoms: _492  and  _495
REMARK  212  A    between atoms: _495  and  _496
REMARK  213  A    between atoms: _499  and  _501
REMARK  214  A    between atoms: _501  and  _502
REMARK  215  A    between atoms: _501  and  _504
REMARK  216  A    between atoms: _507  and  _509
REMARK  217  A    between atoms: _509  and  _510
REMARK  218  A    between atoms: _509  and  _512
REMARK  219  A    between atoms: _512  and  _513
REMARK  220  A    between atoms: _516  and  _518
REMARK  221  A    between atoms: _518  and  _519
REMARK  222  A    between atoms: _518  and  _521
REMARK  223  A    between atoms: _521  and  _522
REMARK  224  A    between atoms: _525  and  _527
REMARK  225  A    between atoms: _527  and  _528
REMARK  226  A    between atoms: _527  and  _530
REMARK  227  A    between atoms: _530  and  _531
REMARK  228  A    between atoms: _531  and  _532
REMARK  229  A    between atoms: _532  and  _533
REMARK  230  A    between atoms: _533  and  _534
REMARK  231  A    between atoms: _538  and  _540
REMARK  232  A    between atoms: _540  and  _541
REMARK  233  A    between atoms: _540  and  _543
REMARK  234  A    between atoms: _543  and  _544
REMARK  235  A    between atoms: _549  and  _551
REMARK  236  A    between atoms: _551  and  _552
REMARK  237  A    between atoms: _555  and  _557
REMARK  238  A    between atoms: _557  and  _558
REMARK  239  A    between atoms: _557  and  _560
REMARK  240  A    between atoms: _560  and  _561
REMARK  241  A    between atoms: _571  and  _573
REMARK  242  A    between atoms: _573  and  _574
REMARK  243  A    between atoms: _573  and  _576
REMARK  244  A    between atoms: _576  and  _577
REMARK  245  A    between atoms: _577  and  _578
REMARK  246  A    between atoms: _581  and  _583
REMARK  247  A    between atoms: _583  and  _584
REMARK  248  A    between atoms: _583  and  _586
REMARK  249  A    between atoms: _586  and  _587
REMARK  250  A    between atoms: _589  and  _591
REMARK  251  A    between atoms: _591  and  _592
REMARK  252  A    between atoms: _591  and  _594
REMARK  253  A    between atoms: _594  and  _595
REMARK  254  A    between atoms: _601  and  _603
REMARK  255  A    between atoms: _603  and  _604
REMARK  256  A    between atoms: _603  and  _606
REMARK  257  A    between atoms: _606  and  _607
REMARK  258  A    between atoms: _610  and  _612
REMARK  259  A    between atoms: _612  and  _613
REMARK  260  A    between atoms: _612  and  _615
REMARK  261  A    between atoms: _618  and  _620
REMARK  262  A    between atoms: _620  and  _621
REMARK  263  A    between atoms: _620  and  _623
REMARK  264  A    between atoms: _623  and  _624
REMARK  265  A    between atoms: _624  and  _625
REMARK  266  A    between atoms: _627  and  _629
REMARK  267  A    between atoms: _629  and  _630
REMARK  268  A    between atoms: _632  and  _634
REMARK  269  A    between atoms: _634  and  _635
REMARK  270  A    between atoms: _634  and  _637
REMARK  271  A    between atoms: _637  and  _638
REMARK  272  A    between atoms: _641  and  _643
REMARK  273  A    between atoms: _643  and  _644
REMARK  274  A    between atoms: _643  and  _646
REMARK  275  A    between atoms: _646  and  _647
REMARK  276  A    between atoms: _647  and  _648
REMARK  277  A    between atoms: _648  and  _649
REMARK  278  A    between atoms: _649  and  _650
REMARK  279  A    between atoms: _654  and  _656
REMARK  280  A    between atoms: _656  and  _657
REMARK  281  A    between atoms: _656  and  _659
REMARK                            x       y       z     vdW  Elec       q    Type
REMARK                         _______ _______ _______ _____ _____    ______ ____
ROOT
ATOM      1  O   HOH     1       1.743   4.341  22.901  0.00  0.00    +0.000 OA
ENDROOT
TORSDOF 0
REMARK  Name = ../refined-set-2016/2yki/2yki_pocket.pdb
REMARK  281 active torsions:
REMARK  status: ('A' for Active; 'I' for Inactive)
REMARK    1  A    between atoms: _1  and  _3
REMARK    2  A    between atoms: _3  and  _4
REMARK    3  A    between atoms: _3  and  _6
REMARK    4  A    between atoms: _6  and  _7
REMARK    5  A    between atoms: _13  and  _15
REMARK    6  A    between atoms: _15  and  _16
REMARK    7  A    between atoms: _19  and  _21
REMARK    8  A    between atoms: _21  and  _22
REMARK    9  A    between atoms: _21  and  _24
REMARK   10  A    between atoms: _24  and  _25
REMARK   11  A    between atoms: _31  and  _33
REMARK   12  A    between atoms: _33  and  _34
REMARK   13  A    between atoms: _33  and  _36
REMARK   14  A    between atoms: _36  and  _37
REMARK   15  A    between atoms: _37  and  _38
REMARK   16  A    between atoms: _43  and  _45
REMARK   17  A    between atoms: _45  and  _46
REMARK   18  A    between atoms: _45  and  _48
REMARK   19  A    between atoms: _48  and  _49
REMARK   20  A    between atoms: _52  and  _54
REMARK   21  A    between atoms: _54  and  _55
REMARK   22  A    between atoms: _58  and  _60
REMARK   23  A    between atoms: _60  and  _61
REMARK   24  A    between atoms: _60  and  _63
REMARK   25  A    between atoms: _63  and  _64
REMARK   26  A    between atoms: _67  and  _69
REMARK   27  A    between atoms: _69  and  _70
REMARK   28  A    between atoms: _69  and  _72
REMARK   29  A    between atoms: _72  and  _73
REMARK   30  A    between atoms: _73  and  _74
REMARK   31  A    between atoms: _76  and  _78
REMARK   32  A    between atoms: _78  and  _79
REMARK   33  A    between atoms: _78  and  _81
REMARK   34  A    between atoms: _81  and  _82
REMARK   35  A    between atoms: _82  and  _83
REMARK   36  A    between atoms: _86  and  _88
REMARK   37  A    between atoms: _88  and  _89
REMARK   38  A    between atoms: _88  and  _91
REMARK   39  A    between atoms: _91  and  _92
REMARK   40  A    between atoms: _95  and  _97
REMARK   41  A    between atoms: _97  and  _98
REMARK   42  A    between atoms: _97  and  _100
REMARK   43  A    between atoms: _100  and  _101
REMARK   44  A    between atoms: _104  and  _106
REMARK   45  A    between atoms: _106  and  _107
REMARK   46  A    between atoms: _106  and  _109
REMARK   47  A    between atoms: _109  and  _110
REMARK   48  A    between atoms: _112  and  _114
REMARK   49  A    between atoms: _114  and  _115
REMARK   50  A    between atoms: _114  and  _117
REMARK   51  A    between atoms: _117  and  _118
REMARK   52  A    between atoms: _123  and  _125
REMARK   53  A    between atoms: _125  and  _126
REMARK   54  A    between atoms: _125  and  _128
REMARK   55  A    between atoms: _128  and  _129
REMARK   56  A    between atoms: _131  and  _133
REMARK   57  A    between atoms: _133  and  _134
REMARK   58  A    between atoms: _133  and  _136
REMARK   59  A    between atoms: _136  and  _137
REMARK   60  A    between atoms: _139  and  _141
REMARK   61  A    between atoms: _141  and  _142
REMARK   62  A    between atoms: _141  and  _144
REMARK   63  A    between atoms: _144  and  _145
REMARK   64  A    between atoms: _148  and  _150
REMARK   65  A    between atoms: _150  and  _151
REMARK   66  A    between atoms: _154  and  _156
REMARK   67  A    between atoms: _156  and  _157
REMARK   68  A    between atoms: _156  and  _159
REMARK   69  A    between atoms: _159  and  _160
REMARK   70  A    between atoms: _163  and  _165
REMARK   71  A    between atoms: _165  and  _166
REMARK   72  A    between atoms: _165  and  _168
REMARK   73  A    between atoms: _168  and  _169
REMARK   74  A    between atoms: _169  and  _170
REMARK   75  A    between atoms: _170  and  _171
REMARK   76  A    between atoms: _171  and  _172
REMARK   77  A    between atoms: _176  and  _178
REMARK   78  A    between atoms: _178  and  _179
REMARK   79  A    between atoms: _178  and  _181
REMARK   80  A    between atoms: _181  and  _182
REMARK   81  A    between atoms: _185  and  _187
REMARK   82  A    between atoms: _187  and  _188
REMARK   83  A    between atoms: _187  and  _190
REMARK   84  A    between atoms: _190  and  _191
REMARK   85  A    between atoms: _194  and  _196
REMARK   86  A    between atoms: _196  and  _197
REMARK   87  A    between atoms: _196  and  _199
REMARK   88  A    between atoms: _202  and  _204
REMARK   89  A    between atoms: _204  and  _205
REMARK   90  A    between atoms: _204  and  _207
REMARK   91  A    between atoms: _207  and  _208
REMARK   92  A    between atoms: _211  and  _213
REMARK   93  A    between atoms: _213  and  _214
REMARK   94  A    between atoms: _213  and  _216
REMARK   95  A    between atoms: _216  and  _217
REMARK   96  A    between atoms: _220  and  _222
REMARK   97  A    between atoms: _222  and  _223
REMARK   98  A    between atoms: _225  and  _227
REMARK   99  A    between atoms: _227  and  _228
REMARK  100  A    between atoms: _227  and  _230
REMARK  101  A    between atoms: _230  and  _231
REMARK  102  A    between atoms: _234  and  _236
REMARK  103  A    between atoms: _236  and  _237
REMARK  104  A    between atoms: _239  and  _241
REMARK  105  A    between atoms: _241  and  _242
REMARK  106  A    between atoms: _241  and  _244
REMARK  107  A    between atoms: _244  and  _245
REMARK  108  A    between atoms: _245  and  _246
REMARK  109  A    between atoms: _248  and  _250
REMARK  110  A    between atoms: _250  and  _251
REMARK  111  A    between atoms: _250  and  _253
REMARK  112  A    between atoms: _253  and  _254
REMARK  113  A    between atoms: _257  and  _259
REMARK  114  A    between atoms: _259  and  _260
REMARK  115  A    between atoms: _259  and  _262
REMARK  116  A    between atoms: _262  and  _263
REMARK  117  A    between atoms: _263  and  _264
REMARK  118  A    between atoms: _264  and  _265
REMARK  119  A    between atoms: _265  and  _266
REMARK  120  A    between atoms: _270  and  _272
REMARK  121  A    between atoms: _272  and  _273
REMARK  122  A    between atoms: _276  and  _278
REMARK  123  A    between atoms: _278  and  _279
REMARK  124  A    between atoms: _278  and  _281
REMARK  125  A    between atoms: _281  and  _282
REMARK  126  A    between atoms: _285  and  _287
REMARK  127  A    between atoms: _287  and  _288
REMARK  128  A    between atoms: _287  and  _290
REMARK  129  A    between atoms: _290  and  _291
REMARK  130  A    between atoms: _294  and  _296
REMARK  131  A    between atoms: _296  and  _297
REMARK  132  A    between atoms: _296  and  _299
REMARK  133  A    between atoms: _299  and  _300
REMARK  134  A    between atoms: _303  and  _305
REMARK  135  A    between atoms: _305  and  _306
REMARK  136  A    between atoms: _305  and  _308
REMARK  137  A    between atoms: _308  and  _309
REMARK  138  A    between atoms: _314  and  _316
REMARK  139  A    between atoms: _316  and  _317
REMARK  140  A    between atoms: _316  and  _319
REMARK  141  A    between atoms: _319  and  _320
REMARK  142  A    between atoms: _325  and  _327
REMARK  143  A    between atoms: _327  and  _328
REMARK  144  A    between atoms: _327  and  _330
REMARK  145  A    between atoms: _330  and  _331
REMARK  146  A    between atoms: _334  and  _336
REMARK  147  A    between atoms: _336  and  _337
REMARK  148  A    between atoms: _339  and  _341
REMARK  149  A    between atoms: _341  and  _342
REMARK  150  A    between atoms: _341  and  _344
REMARK  151  A    between atoms: _344  and  _345
REMARK  152  A    between atoms: _348  and  _350
REMARK  153  A    between atoms: _350  and  _351
REMARK  154  A    between atoms: _350  and  _353
REMARK  155  A    between atoms: _353  and  _354
REMARK  156  A    between atoms: _357  and  _359
REMARK  157  A    between atoms: _359  and  _360
REMARK  158  A    between atoms: _363  and  _365
REMARK  159  A    between atoms: _365  and  _366
REMARK  160  A    between atoms: _365  and  _368
REMARK  161  A    between atoms: _368  and  _369
REMARK  162  A    between atoms: _369  and  _370
REMARK  163  A    between atoms: _370  and  _371
REMARK  164  A    between atoms: _371  and  _372
REMARK  165  A    between atoms: _376  and  _378
REMARK  166  A    between atoms: _378  and  _379
REMARK  167  A    between atoms: _378  and  _381
REMARK  168  A    between atoms: _381  and  _382
REMARK  169  A    between atoms: _384  and  _386
REMARK  170  A    between atoms: _386  and  _387
REMARK  171  A    between atoms: _389  and  _391
REMARK  172  A    between atoms: _391  and  _392
REMARK  173  A    between atoms: _391  and  _394
REMARK  174  A    between atoms: _394  and  _395
REMARK  175  A    between atoms: _398  and  _400
REMARK  176  A    between atoms: _400  and  _401
REMARK  177  A    between atoms: _400  and  _403
REMARK  178  A    between atoms: _403  and  _404
REMARK  179  A    between atoms: _410  and  _412
REMARK  180  A    between atoms: _412  and  _413
REMARK  181  A    between atoms: _415  and  _417
REMARK  182  A    between atoms: _417  and  _418
REMARK  183  A    between atoms: _417  and  _420
REMARK  184  A    between atoms: _423  and  _425
REMARK  185  A    between atoms: _425  and  _426
REMARK  186  A    between atoms: _428  and  _430
REMARK  187  A    between atoms: _430  and  _431
REMARK  188  A    between atoms: _430  and  _433
REMARK  189  A    between atoms: _433  and  _434
REMARK  190  A    between atoms: _440  and  _442
REMARK  191  A    between atoms: _442  and  _443
REMARK  192  A    between atoms: _442  and  _445
REMARK  193  A    between atoms: _445  and  _446
REMARK  194  A    between atoms: _451  and  _452
REMARK  195  A    between atoms: _454  and  _456
REMARK  196  A    between atoms: _456  and  _457
REMARK  197  A    between atoms: _456  and  _459
REMARK  198  A    between atoms: _459  and  _460
REMARK  199  A    between atoms: _462  and  _464
REMARK  200  A    between atoms: _464  and  _465
REMARK  201  A    between atoms: _468  and  _470
REMARK  202  A    between atoms: _470  and  _471
REMARK  203  A    between atoms: _470  and  _473
REMARK  204  A    between atoms: _473  and  _474
REMARK  205  A    between atoms: _479  and  _480
REMARK  206  A    between atoms: _482  and  _484
REMARK  207  A    between atoms: _484  and  _485
REMARK  208  A    between atoms: _484  and  _487
REMARK  209  A    between atoms: _490  and  _492
REMARK  210  A    between atoms: _492  and  _493
REMARK  211  A    between atoms: _492  and  _495
REMARK  212  A    between atoms: _495  and  _496
REMARK  213  A    between atoms: _499  and  _501
REMARK  214  A    between atoms: _501  and  _502
REMARK  215  A    between atoms: _501  and  _504
REMARK  216  A    between atoms: _507  and  _509
REMARK  217  A    between atoms: _509  and  _510
REMARK  218  A    between atoms: _509  and  _512
REMARK  219  A    between atoms: _512  and  _513
REMARK  220  A    between atoms: _516  and  _518
REMARK  221  A    between atoms: _518  and  _519
REMARK  222  A    between atoms: _518  and  _521
REMARK  223  A    between atoms: _521  and  _522
REMARK  224  A    between atoms: _525  and  _527
REMARK  225  A    between atoms: _527  and  _528
REMARK  226  A    between atoms: _527  and  _530
REMARK  227  A    between atoms: _530  and  _531
REMARK  228  A    between atoms: _531  and  _532
REMARK  229  A    between atoms: _532  and  _533
REMARK  230  A    between atoms: _533  and  _534
REMARK  231  A    between atoms: _538  and  _540
REMARK  232  A    between atoms: _540  and  _541
REMARK  233  A    between atoms: _540  and  _543
REMARK  234  A    between atoms: _543  and  _544
REMARK  235  A    between atoms: _549  and  _551
REMARK  236  A    between atoms: _551  and  _552
REMARK  237  A    between atoms: _555  and  _557
REMARK  238  A    between atoms: _557  and  _558
REMARK  239  A    between atoms: _557  and  _560
REMARK  240  A    between atoms: _560  and  _561
REMARK  241  A    between atoms: _571  and  _573
REMARK  242  A    between atoms: _573  and  _574
REMARK  243  A    between atoms: _573  and  _576
REMARK  244  A    between atoms: _576  and  _577
REMARK  245  A    between atoms: _577  and  _578
REMARK  246  A    between atoms: _581  and  _583
REMARK  247  A    between atoms: _583  and  _584
REMARK  248  A    between atoms: _583  and  _586
REMARK  249  A    between atoms: _586  and  _587
REMARK  250  A    between atoms: _589  and  _591
REMARK  251  A    between atoms: _591  and  _592
REMARK  252  A    between atoms: _591  and  _594
REMARK  253  A    between atoms: _594  and  _595
REMARK  254  A    between atoms: _601  and  _603
REMARK  255  A    between atoms: _603  and  _604
REMARK  256  A    between atoms: _603  and  _606
REMARK  257  A    between atoms: _606  and  _607
REMARK  258  A    between atoms: _610  and  _612
REMARK  259  A    between atoms: _612  and  _613
REMARK  260  A    between atoms: _612  and  _615
REMARK  261  A    between atoms: _618  and  _620
REMARK  262  A    between atoms: _620  and  _621
REMARK  263  A    between atoms: _620  and  _623
REMARK  264  A    between atoms: _623  and  _624
REMARK  265  A    between atoms: _624  and  _625
REMARK  266  A    between atoms: _627  and  _629
REMARK  267  A    between atoms: _629  and  _630
REMARK  268  A    between atoms: _632  and  _634
REMARK  269  A    between atoms: _634  and  _635
REMARK  270  A    between atoms: _634  and  _637
REMARK  271  A    between atoms: _637  and  _638
REMARK  272  A    between atoms: _641  and  _643
REMARK  273  A    between atoms: _643  and  _644
REMARK  274  A    between atoms: _643  and  _646
REMARK  275  A    between atoms: _646  and  _647
REMARK  276  A    between atoms: _647  and  _648
REMARK  277  A    between atoms: _648  and  _649
REMARK  278  A    between atoms: _649  and  _650
REMARK  279  A    between atoms: _654  and  _656
REMARK  280  A    between atoms: _656  and  _657
REMARK  281  A    between atoms: _656  and  _659
REMARK                            x       y       z     vdW  Elec       q    Type
REMARK                         _______ _______ _______ _____ _____    ______ ____
ROOT
ATOM      1  O   HOH     1       5.941   5.727  25.726  0.00  0.00    +0.000 OA
ENDROOT
TORSDOF 0
REMARK  Name = ../refined-set-2016/2yki/2yki_pocket.pdb
REMARK  281 active torsions:
REMARK  status: ('A' for Active; 'I' for Inactive)
REMARK    1  A    between atoms: _1  and  _3
REMARK    2  A    between atoms: _3  and  _4
REMARK    3  A    between atoms: _3  and  _6
REMARK    4  A    between atoms: _6  and  _7
REMARK    5  A    between atoms: _13  and  _15
REMARK    6  A    between atoms: _15  and  _16
REMARK    7  A    between atoms: _19  and  _21
REMARK    8  A    between atoms: _21  and  _22
REMARK    9  A    between atoms: _21  and  _24
REMARK   10  A    between atoms: _24  and  _25
REMARK   11  A    between atoms: _31  and  _33
REMARK   12  A    between atoms: _33  and  _34
REMARK   13  A    between atoms: _33  and  _36
REMARK   14  A    between atoms: _36  and  _37
REMARK   15  A    between atoms: _37  and  _38
REMARK   16  A    between atoms: _43  and  _45
REMARK   17  A    between atoms: _45  and  _46
REMARK   18  A    between atoms: _45  and  _48
REMARK   19  A    between atoms: _48  and  _49
REMARK   20  A    between atoms: _52  and  _54
REMARK   21  A    between atoms: _54  and  _55
REMARK   22  A    between atoms: _58  and  _60
REMARK   23  A    between atoms: _60  and  _61
REMARK   24  A    between atoms: _60  and  _63
REMARK   25  A    between atoms: _63  and  _64
REMARK   26  A    between atoms: _67  and  _69
REMARK   27  A    between atoms: _69  and  _70
REMARK   28  A    between atoms: _69  and  _72
REMARK   29  A    between atoms: _72  and  _73
REMARK   30  A    between atoms: _73  and  _74
REMARK   31  A    between atoms: _76  and  _78
REMARK   32  A    between atoms: _78  and  _79
REMARK   33  A    between atoms: _78  and  _81
REMARK   34  A    between atoms: _81  and  _82
REMARK   35  A    between atoms: _82  and  _83
REMARK   36  A    between atoms: _86  and  _88
REMARK   37  A    between atoms: _88  and  _89
REMARK   38  A    between atoms: _88  and  _91
REMARK   39  A    between atoms: _91  and  _92
REMARK   40  A    between atoms: _95  and  _97
REMARK   41  A    between atoms: _97  and  _98
REMARK   42  A    between atoms: _97  and  _100
REMARK   43  A    between atoms: _100  and  _101
REMARK   44  A    between atoms: _104  and  _106
REMARK   45  A    between atoms: _106  and  _107
REMARK   46  A    between atoms: _106  and  _109
REMARK   47  A    between atoms: _109  and  _110
REMARK   48  A    between atoms: _112  and  _114
REMARK   49  A    between atoms: _114  and  _115
REMARK   50  A    between atoms: _114  and  _117
REMARK   51  A    between atoms: _117  and  _118
REMARK   52  A    between atoms: _123  and  _125
REMARK   53  A    between atoms: _125  and  _126
REMARK   54  A    between atoms: _125  and  _128
REMARK   55  A    between atoms: _128  and  _129
REMARK   56  A    between atoms: _131  and  _133
REMARK   57  A    between atoms: _133  and  _134
REMARK   58  A    between atoms: _133  and  _136
REMARK   59  A    between atoms: _136  and  _137
REMARK   60  A    between atoms: _139  and  _141
REMARK   61  A    between atoms: _141  and  _142
REMARK   62  A    between atoms: _141  and  _144
REMARK   63  A    between atoms: _144  and  _145
REMARK   64  A    between atoms: _148  and  _150
REMARK   65  A    between atoms: _150  and  _151
REMARK   66  A    between atoms: _154  and  _156
REMARK   67  A    between atoms: _156  and  _157
REMARK   68  A    between atoms: _156  and  _159
REMARK   69  A    between atoms: _159  and  _160
REMARK   70  A    between atoms: _163  and  _165
REMARK   71  A    between atoms: _165  and  _166
REMARK   72  A    between atoms: _165  and  _168
REMARK   73  A    between atoms: _168  and  _169
REMARK   74  A    between atoms: _169  and  _170
REMARK   75  A    between atoms: _170  and  _171
REMARK   76  A    between atoms: _171  and  _172
REMARK   77  A    between atoms: _176  and  _178
REMARK   78  A    between atoms: _178  and  _179
REMARK   79  A    between atoms: _178  and  _181
REMARK   80  A    between atoms: _181  and  _182
REMARK   81  A    between atoms: _185  and  _187
REMARK   82  A    between atoms: _187  and  _188
REMARK   83  A    between atoms: _187  and  _190
REMARK   84  A    between atoms: _190  and  _191
REMARK   85  A    between atoms: _194  and  _196
REMARK   86  A    between atoms: _196  and  _197
REMARK   87  A    between atoms: _196  and  _199
REMARK   88  A    between atoms: _202  and  _204
REMARK   89  A    between atoms: _204  and  _205
REMARK   90  A    between atoms: _204  and  _207
REMARK   91  A    between atoms: _207  and  _208
REMARK   92  A    between atoms: _211  and  _213
REMARK   93  A    between atoms: _213  and  _214
REMARK   94  A    between atoms: _213  and  _216
REMARK   95  A    between atoms: _216  and  _217
REMARK   96  A    between atoms: _220  and  _222
REMARK   97  A    between atoms: _222  and  _223
REMARK   98  A    between atoms: _225  and  _227
REMARK   99  A    between atoms: _227  and  _228
REMARK  100  A    between atoms: _227  and  _230
REMARK  101  A    between atoms: _230  and  _231
REMARK  102  A    between atoms: _234  and  _236
REMARK  103  A    between atoms: _236  and  _237
REMARK  104  A    between atoms: _239  and  _241
REMARK  105  A    between atoms: _241  and  _242
REMARK  106  A    between atoms: _241  and  _244
REMARK  107  A    between atoms: _244  and  _245
REMARK  108  A    between atoms: _245  and  _246
REMARK  109  A    between atoms: _248  and  _250
REMARK  110  A    between atoms: _250  and  _251
REMARK  111  A    between atoms: _250  and  _253
REMARK  112  A    between atoms: _253  and  _254
REMARK  113  A    between atoms: _257  and  _259
REMARK  114  A    between atoms: _259  and  _260
REMARK  115  A    between atoms: _259  and  _262
REMARK  116  A    between atoms: _262  and  _263
REMARK  117  A    between atoms: _263  and  _264
REMARK  118  A    between atoms: _264  and  _265
REMARK  119  A    between atoms: _265  and  _266
REMARK  120  A    between atoms: _270  and  _272
REMARK  121  A    between atoms: _272  and  _273
REMARK  122  A    between atoms: _276  and  _278
REMARK  123  A    between atoms: _278  and  _279
REMARK  124  A    between atoms: _278  and  _281
REMARK  125  A    between atoms: _281  and  _282
REMARK  126  A    between atoms: _285  and  _287
REMARK  127  A    between atoms: _287  and  _288
REMARK  128  A    between atoms: _287  and  _290
REMARK  129  A    between atoms: _290  and  _291
REMARK  130  A    between atoms: _294  and  _296
REMARK  131  A    between atoms: _296  and  _297
REMARK  132  A    between atoms: _296  and  _299
REMARK  133  A    between atoms: _299  and  _300
REMARK  134  A    between atoms: _303  and  _305
REMARK  135  A    between atoms: _305  and  _306
REMARK  136  A    between atoms: _305  and  _308
REMARK  137  A    between atoms: _308  and  _309
REMARK  138  A    between atoms: _314  and  _316
REMARK  139  A    between atoms: _316  and  _317
REMARK  140  A    between atoms: _316  and  _319
REMARK  141  A    between atoms: _319  and  _320
REMARK  142  A    between atoms: _325  and  _327
REMARK  143  A    between atoms: _327  and  _328
REMARK  144  A    between atoms: _327  and  _330
REMARK  145  A    between atoms: _330  and  _331
REMARK  146  A    between atoms: _334  and  _336
REMARK  147  A    between atoms: _336  and  _337
REMARK  148  A    between atoms: _339  and  _341
REMARK  149  A    between atoms: _341  and  _342
REMARK  150  A    between atoms: _341  and  _344
REMARK  151  A    between atoms: _344  and  _345
REMARK  152  A    between atoms: _348  and  _350
REMARK  153  A    between atoms: _350  and  _351
REMARK  154  A    between atoms: _350  and  _353
REMARK  155  A    between atoms: _353  and  _354
REMARK  156  A    between atoms: _357  and  _359
REMARK  157  A    between atoms: _359  and  _360
REMARK  158  A    between atoms: _363  and  _365
REMARK  159  A    between atoms: _365  and  _366
REMARK  160  A    between atoms: _365  and  _368
REMARK  161  A    between atoms: _368  and  _369
REMARK  162  A    between atoms: _369  and  _370
REMARK  163  A    between atoms: _370  and  _371
REMARK  164  A    between atoms: _371  and  _372
REMARK  165  A    between atoms: _376  and  _378
REMARK  166  A    between atoms: _378  and  _379
REMARK  167  A    between atoms: _378  and  _381
REMARK  168  A    between atoms: _381  and  _382
REMARK  169  A    between atoms: _384  and  _386
REMARK  170  A    between atoms: _386  and  _387
REMARK  171  A    between atoms: _389  and  _391
REMARK  172  A    between atoms: _391  and  _392
REMARK  173  A    between atoms: _391  and  _394
REMARK  174  A    between atoms: _394  and  _395
REMARK  175  A    between atoms: _398  and  _400
REMARK  176  A    between atoms: _400  and  _401
REMARK  177  A    between atoms: _400  and  _403
REMARK  178  A    between atoms: _403  and  _404
REMARK  179  A    between atoms: _410  and  _412
REMARK  180  A    between atoms: _412  and  _413
REMARK  181  A    between atoms: _415  and  _417
REMARK  182  A    between atoms: _417  and  _418
REMARK  183  A    between atoms: _417  and  _420
REMARK  184  A    between atoms: _423  and  _425
REMARK  185  A    between atoms: _425  and  _426
REMARK  186  A    between atoms: _428  and  _430
REMARK  187  A    between atoms: _430  and  _431
REMARK  188  A    between atoms: _430  and  _433
REMARK  189  A    between atoms: _433  and  _434
REMARK  190  A    between atoms: _440  and  _442
REMARK  191  A    between atoms: _442  and  _443
REMARK  192  A    between atoms: _442  and  _445
REMARK  193  A    between atoms: _445  and  _446
REMARK  194  A    between atoms: _451  and  _452
REMARK  195  A    between atoms: _454  and  _456
REMARK  196  A    between atoms: _456  and  _457
REMARK  197  A    between atoms: _456  and  _459
REMARK  198  A    between atoms: _459  and  _460
REMARK  199  A    between atoms: _462  and  _464
REMARK  200  A    between atoms: _464  and  _465
REMARK  201  A    between atoms: _468  and  _470
REMARK  202  A    between atoms: _470  and  _471
REMARK  203  A    between atoms: _470  and  _473
REMARK  204  A    between atoms: _473  and  _474
REMARK  205  A    between atoms: _479  and  _480
REMARK  206  A    between atoms: _482  and  _484
REMARK  207  A    between atoms: _484  and  _485
REMARK  208  A    between atoms: _484  and  _487
REMARK  209  A    between atoms: _490  and  _492
REMARK  210  A    between atoms: _492  and  _493
REMARK  211  A    between atoms: _492  and  _495
REMARK  212  A    between atoms: _495  and  _496
REMARK  213  A    between atoms: _499  and  _501
REMARK  214  A    between atoms: _501  and  _502
REMARK  215  A    between atoms: _501  and  _504
REMARK  216  A    between atoms: _507  and  _509
REMARK  217  A    between atoms: _509  and  _510
REMARK  218  A    between atoms: _509  and  _512
REMARK  219  A    between atoms: _512  and  _513
REMARK  220  A    between atoms: _516  and  _518
REMARK  221  A    between atoms: _518  and  _519
REMARK  222  A    between atoms: _518  and  _521
REMARK  223  A    between atoms: _521  and  _522
REMARK  224  A    between atoms: _525  and  _527
REMARK  225  A    between atoms: _527  and  _528
REMARK  226  A    between atoms: _527  and  _530
REMARK  227  A    between atoms: _530  and  _531
REMARK  228  A    between atoms: _531  and  _532
REMARK  229  A    between atoms: _532  and  _533
REMARK  230  A    between atoms: _533  and  _534
REMARK  231  A    between atoms: _538  and  _540
REMARK  232  A    between atoms: _540  and  _541
REMARK  233  A    between atoms: _540  and  _543
REMARK  234  A    between atoms: _543  and  _544
REMARK  235  A    between atoms: _549  and  _551
REMARK  236  A    between atoms: _551  and  _552
REMARK  237  A    between atoms: _555  and  _557
REMARK  238  A    between atoms: _557  and  _558
REMARK  239  A    between atoms: _557  and  _560
REMARK  240  A    between atoms: _560  and  _561
REMARK  241  A    between atoms: _571  and  _573
REMARK  242  A    between atoms: _573  and  _574
REMARK  243  A    between atoms: _573  and  _576
REMARK  244  A    between atoms: _576  and  _577
REMARK  245  A    between atoms: _577  and  _578
REMARK  246  A    between atoms: _581  and  _583
REMARK  247  A    between atoms: _583  and  _584
REMARK  248  A    between atoms: _583  and  _586
REMARK  249  A    between atoms: _586  and  _587
REMARK  250  A    between atoms: _589  and  _591
REMARK  251  A    between atoms: _591  and  _592
REMARK  252  A    between atoms: _591  and  _594
REMARK  253  A    between atoms: _594  and  _595
REMARK  254  A    between atoms: _601  and  _603
REMARK  255  A    between atoms: _603  and  _604
REMARK  256  A    between atoms: _603  and  _606
REMARK  257  A    between atoms: _606  and  _607
REMARK  258  A    between atoms: _610  and  _612
REMARK  259  A    between atoms: _612  and  _613
REMARK  260  A    between atoms: _612  and  _615
REMARK  261  A    between atoms: _618  and  _620
REMARK  262  A    between atoms: _620  and  _621
REMARK  263  A    between atoms: _620  and  _623
REMARK  264  A    between atoms: _623  and  _624
REMARK  265  A    between atoms: _624  and  _625
REMARK  266  A    between atoms: _627  and  _629
REMARK  267  A    between atoms: _629  and  _630
REMARK  268  A    between atoms: _632  and  _634
REMARK  269  A    between atoms: _634  and  _635
REMARK  270  A    between atoms: _634  and  _637
REMARK  271  A    between atoms: _637  and  _638
REMARK  272  A    between atoms: _641  and  _643
REMARK  273  A    between atoms: _643  and  _644
REMARK  274  A    between atoms: _643  and  _646
REMARK  275  A    between atoms: _646  and  _647
REMARK  276  A    between atoms: _647  and  _648
REMARK  277  A    between atoms: _648  and  _649
REMARK  278  A    between atoms: _649  and  _650
REMARK  279  A    between atoms: _654  and  _656
REMARK  280  A    between atoms: _656  and  _657
REMARK  281  A    between atoms: _656  and  _659
REMARK                            x       y       z     vdW  Elec       q    Type
REMARK                         _______ _______ _______ _____ _____    ______ ____
ROOT
ATOM      1  O   HOH     1      -3.599  10.940  27.665  0.00  0.00    +0.000 OA
ENDROOT
TORSDOF 0
REMARK  Name = ../refined-set-2016/2yki/2yki_pocket.pdb
REMARK  281 active torsions:
REMARK  status: ('A' for Active; 'I' for Inactive)
REMARK    1  A    between atoms: _1  and  _3
REMARK    2  A    between atoms: _3  and  _4
REMARK    3  A    between atoms: _3  and  _6
REMARK    4  A    between atoms: _6  and  _7
REMARK    5  A    between atoms: _13  and  _15
REMARK    6  A    between atoms: _15  and  _16
REMARK    7  A    between atoms: _19  and  _21
REMARK    8  A    between atoms: _21  and  _22
REMARK    9  A    between atoms: _21  and  _24
REMARK   10  A    between atoms: _24  and  _25
REMARK   11  A    between atoms: _31  and  _33
REMARK   12  A    between atoms: _33  and  _34
REMARK   13  A    between atoms: _33  and  _36
REMARK   14  A    between atoms: _36  and  _37
REMARK   15  A    between atoms: _37  and  _38
REMARK   16  A    between atoms: _43  and  _45
REMARK   17  A    between atoms: _45  and  _46
REMARK   18  A    between atoms: _45  and  _48
REMARK   19  A    between atoms: _48  and  _49
REMARK   20  A    between atoms: _52  and  _54
REMARK   21  A    between atoms: _54  and  _55
REMARK   22  A    between atoms: _58  and  _60
REMARK   23  A    between atoms: _60  and  _61
REMARK   24  A    between atoms: _60  and  _63
REMARK   25  A    between atoms: _63  and  _64
REMARK   26  A    between atoms: _67  and  _69
REMARK   27  A    between atoms: _69  and  _70
REMARK   28  A    between atoms: _69  and  _72
REMARK   29  A    between atoms: _72  and  _73
REMARK   30  A    between atoms: _73  and  _74
REMARK   31  A    between atoms: _76  and  _78
REMARK   32  A    between atoms: _78  and  _79
REMARK   33  A    between atoms: _78  and  _81
REMARK   34  A    between atoms: _81  and  _82
REMARK   35  A    between atoms: _82  and  _83
REMARK   36  A    between atoms: _86  and  _88
REMARK   37  A    between atoms: _88  and  _89
REMARK   38  A    between atoms: _88  and  _91
REMARK   39  A    between atoms: _91  and  _92
REMARK   40  A    between atoms: _95  and  _97
REMARK   41  A    between atoms: _97  and  _98
REMARK   42  A    between atoms: _97  and  _100
REMARK   43  A    between atoms: _100  and  _101
REMARK   44  A    between atoms: _104  and  _106
REMARK   45  A    between atoms: _106  and  _107
REMARK   46  A    between atoms: _106  and  _109
REMARK   47  A    between atoms: _109  and  _110
REMARK   48  A    between atoms: _112  and  _114
REMARK   49  A    between atoms: _114  and  _115
REMARK   50  A    between atoms: _114  and  _117
REMARK   51  A    between atoms: _117  and  _118
REMARK   52  A    between atoms: _123  and  _125
REMARK   53  A    between atoms: _125  and  _126
REMARK   54  A    between atoms: _125  and  _128
REMARK   55  A    between atoms: _128  and  _129
REMARK   56  A    between atoms: _131  and  _133
REMARK   57  A    between atoms: _133  and  _134
REMARK   58  A    between atoms: _133  and  _136
REMARK   59  A    between atoms: _136  and  _137
REMARK   60  A    between atoms: _139  and  _141
REMARK   61  A    between atoms: _141  and  _142
REMARK   62  A    between atoms: _141  and  _144
REMARK   63  A    between atoms: _144  and  _145
REMARK   64  A    between atoms: _148  and  _150
REMARK   65  A    between atoms: _150  and  _151
REMARK   66  A    between atoms: _154  and  _156
REMARK   67  A    between atoms: _156  and  _157
REMARK   68  A    between atoms: _156  and  _159
REMARK   69  A    between atoms: _159  and  _160
REMARK   70  A    between atoms: _163  and  _165
REMARK   71  A    between atoms: _165  and  _166
REMARK   72  A    between atoms: _165  and  _168
REMARK   73  A    between atoms: _168  and  _169
REMARK   74  A    between atoms: _169  and  _170
REMARK   75  A    between atoms: _170  and  _171
REMARK   76  A    between atoms: _171  and  _172
REMARK   77  A    between atoms: _176  and  _178
REMARK   78  A    between atoms: _178  and  _179
REMARK   79  A    between atoms: _178  and  _181
REMARK   80  A    between atoms: _181  and  _182
REMARK   81  A    between atoms: _185  and  _187
REMARK   82  A    between atoms: _187  and  _188
REMARK   83  A    between atoms: _187  and  _190
REMARK   84  A    between atoms: _190  and  _191
REMARK   85  A    between atoms: _194  and  _196
REMARK   86  A    between atoms: _196  and  _197
REMARK   87  A    between atoms: _196  and  _199
REMARK   88  A    between atoms: _202  and  _204
REMARK   89  A    between atoms: _204  and  _205
REMARK   90  A    between atoms: _204  and  _207
REMARK   91  A    between atoms: _207  and  _208
REMARK   92  A    between atoms: _211  and  _213
REMARK   93  A    between atoms: _213  and  _214
REMARK   94  A    between atoms: _213  and  _216
REMARK   95  A    between atoms: _216  and  _217
REMARK   96  A    between atoms: _220  and  _222
REMARK   97  A    between atoms: _222  and  _223
REMARK   98  A    between atoms: _225  and  _227
REMARK   99  A    between atoms: _227  and  _228
REMARK  100  A    between atoms: _227  and  _230
REMARK  101  A    between atoms: _230  and  _231
REMARK  102  A    between atoms: _234  and  _236
REMARK  103  A    between atoms: _236  and  _237
REMARK  104  A    between atoms: _239  and  _241
REMARK  105  A    between atoms: _241  and  _242
REMARK  106  A    between atoms: _241  and  _244
REMARK  107  A    between atoms: _244  and  _245
REMARK  108  A    between atoms: _245  and  _246
REMARK  109  A    between atoms: _248  and  _250
REMARK  110  A    between atoms: _250  and  _251
REMARK  111  A    between atoms: _250  and  _253
REMARK  112  A    between atoms: _253  and  _254
REMARK  113  A    between atoms: _257  and  _259
REMARK  114  A    between atoms: _259  and  _260
REMARK  115  A    between atoms: _259  and  _262
REMARK  116  A    between atoms: _262  and  _263
REMARK  117  A    between atoms: _263  and  _264
REMARK  118  A    between atoms: _264  and  _265
REMARK  119  A    between atoms: _265  and  _266
REMARK  120  A    between atoms: _270  and  _272
REMARK  121  A    between atoms: _272  and  _273
REMARK  122  A    between atoms: _276  and  _278
REMARK  123  A    between atoms: _278  and  _279
REMARK  124  A    between atoms: _278  and  _281
REMARK  125  A    between atoms: _281  and  _282
REMARK  126  A    between atoms: _285  and  _287
REMARK  127  A    between atoms: _287  and  _288
REMARK  128  A    between atoms: _287  and  _290
REMARK  129  A    between atoms: _290  and  _291
REMARK  130  A    between atoms: _294  and  _296
REMARK  131  A    between atoms: _296  and  _297
REMARK  132  A    between atoms: _296  and  _299
REMARK  133  A    between atoms: _299  and  _300
REMARK  134  A    between atoms: _303  and  _305
REMARK  135  A    between atoms: _305  and  _306
REMARK  136  A    between atoms: _305  and  _308
REMARK  137  A    between atoms: _308  and  _309
REMARK  138  A    between atoms: _314  and  _316
REMARK  139  A    between atoms: _316  and  _317
REMARK  140  A    between atoms: _316  and  _319
REMARK  141  A    between atoms: _319  and  _320
REMARK  142  A    between atoms: _325  and  _327
REMARK  143  A    between atoms: _327  and  _328
REMARK  144  A    between atoms: _327  and  _330
REMARK  145  A    between atoms: _330  and  _331
REMARK  146  A    between atoms: _334  and  _336
REMARK  147  A    between atoms: _336  and  _337
REMARK  148  A    between atoms: _339  and  _341
REMARK  149  A    between atoms: _341  and  _342
REMARK  150  A    between atoms: _341  and  _344
REMARK  151  A    between atoms: _344  and  _345
REMARK  152  A    between atoms: _348  and  _350
REMARK  153  A    between atoms: _350  and  _351
REMARK  154  A    between atoms: _350  and  _353
REMARK  155  A    between atoms: _353  and  _354
REMARK  156  A    between atoms: _357  and  _359
REMARK  157  A    between atoms: _359  and  _360
REMARK  158  A    between atoms: _363  and  _365
REMARK  159  A    between atoms: _365  and  _366
REMARK  160  A    between atoms: _365  and  _368
REMARK  161  A    between atoms: _368  and  _369
REMARK  162  A    between atoms: _369  and  _370
REMARK  163  A    between atoms: _370  and  _371
REMARK  164  A    between atoms: _371  and  _372
REMARK  165  A    between atoms: _376  and  _378
REMARK  166  A    between atoms: _378  and  _379
REMARK  167  A    between atoms: _378  and  _381
REMARK  168  A    between atoms: _381  and  _382
REMARK  169  A    between atoms: _384  and  _386
REMARK  170  A    between atoms: _386  and  _387
REMARK  171  A    between atoms: _389  and  _391
REMARK  172  A    between atoms: _391  and  _392
REMARK  173  A    between atoms: _391  and  _394
REMARK  174  A    between atoms: _394  and  _395
REMARK  175  A    between atoms: _398  and  _400
REMARK  176  A    between atoms: _400  and  _401
REMARK  177  A    between atoms: _400  and  _403
REMARK  178  A    between atoms: _403  and  _404
REMARK  179  A    between atoms: _410  and  _412
REMARK  180  A    between atoms: _412  and  _413
REMARK  181  A    between atoms: _415  and  _417
REMARK  182  A    between atoms: _417  and  _418
REMARK  183  A    between atoms: _417  and  _420
REMARK  184  A    between atoms: _423  and  _425
REMARK  185  A    between atoms: _425  and  _426
REMARK  186  A    between atoms: _428  and  _430
REMARK  187  A    between atoms: _430  and  _431
REMARK  188  A    between atoms: _430  and  _433
REMARK  189  A    between atoms: _433  and  _434
REMARK  190  A    between atoms: _440  and  _442
REMARK  191  A    between atoms: _442  and  _443
REMARK  192  A    between atoms: _442  and  _445
REMARK  193  A    between atoms: _445  and  _446
REMARK  194  A    between atoms: _451  and  _452
REMARK  195  A    between atoms: _454  and  _456
REMARK  196  A    between atoms: _456  and  _457
REMARK  197  A    between atoms: _456  and  _459
REMARK  198  A    between atoms: _459  and  _460
REMARK  199  A    between atoms: _462  and  _464
REMARK  200  A    between atoms: _464  and  _465
REMARK  201  A    between atoms: _468  and  _470
REMARK  202  A    between atoms: _470  and  _471
REMARK  203  A    between atoms: _470  and  _473
REMARK  204  A    between atoms: _473  and  _474
REMARK  205  A    between atoms: _479  and  _480
REMARK  206  A    between atoms: _482  and  _484
REMARK  207  A    between atoms: _484  and  _485
REMARK  208  A    between atoms: _484  and  _487
REMARK  209  A    between atoms: _490  and  _492
REMARK  210  A    between atoms: _492  and  _493
REMARK  211  A    between atoms: _492  and  _495
REMARK  212  A    between atoms: _495  and  _496
REMARK  213  A    between atoms: _499  and  _501
REMARK  214  A    between atoms: _501  and  _502
REMARK  215  A    between atoms: _501  and  _504
REMARK  216  A    between atoms: _507  and  _509
REMARK  217  A    between atoms: _509  and  _510
REMARK  218  A    between atoms: _509  and  _512
REMARK  219  A    between atoms: _512  and  _513
REMARK  220  A    between atoms: _516  and  _518
REMARK  221  A    between atoms: _518  and  _519
REMARK  222  A    between atoms: _518  and  _521
REMARK  223  A    between atoms: _521  and  _522
REMARK  224  A    between atoms: _525  and  _527
REMARK  225  A    between atoms: _527  and  _528
REMARK  226  A    between atoms: _527  and  _530
REMARK  227  A    between atoms: _530  and  _531
REMARK  228  A    between atoms: _531  and  _532
REMARK  229  A    between atoms: _532  and  _533
REMARK  230  A    between atoms: _533  and  _534
REMARK  231  A    between atoms: _538  and  _540
REMARK  232  A    between atoms: _540  and  _541
REMARK  233  A    between atoms: _540  and  _543
REMARK  234  A    between atoms: _543  and  _544
REMARK  235  A    between atoms: _549  and  _551
REMARK  236  A    between atoms: _551  and  _552
REMARK  237  A    between atoms: _555  and  _557
REMARK  238  A    between atoms: _557  and  _558
REMARK  239  A    between atoms: _557  and  _560
REMARK  240  A    between atoms: _560  and  _561
REMARK  241  A    between atoms: _571  and  _573
REMARK  242  A    between atoms: _573  and  _574
REMARK  243  A    between atoms: _573  and  _576
REMARK  244  A    between atoms: _576  and  _577
REMARK  245  A    between atoms: _577  and  _578
REMARK  246  A    between atoms: _581  and  _583
REMARK  247  A    between atoms: _583  and  _584
REMARK  248  A    between atoms: _583  and  _586
REMARK  249  A    between atoms: _586  and  _587
REMARK  250  A    between atoms: _589  and  _591
REMARK  251  A    between atoms: _591  and  _592
REMARK  252  A    between atoms: _591  and  _594
REMARK  253  A    between atoms: _594  and  _595
REMARK  254  A    between atoms: _601  and  _603
REMARK  255  A    between atoms: _603  and  _604
REMARK  256  A    between atoms: _603  and  _606
REMARK  257  A    between atoms: _606  and  _607
REMARK  258  A    between atoms: _610  and  _612
REMARK  259  A    between atoms: _612  and  _613
REMARK  260  A    between atoms: _612  and  _615
REMARK  261  A    between atoms: _618  and  _620
REMARK  262  A    between atoms: _620  and  _621
REMARK  263  A    between atoms: _620  and  _623
REMARK  264  A    between atoms: _623  and  _624
REMARK  265  A    between atoms: _624  and  _625
REMARK  266  A    between atoms: _627  and  _629
REMARK  267  A    between atoms: _629  and  _630
REMARK  268  A    between atoms: _632  and  _634
REMARK  269  A    between atoms: _634  and  _635
REMARK  270  A    between atoms: _634  and  _637
REMARK  271  A    between atoms: _637  and  _638
REMARK  272  A    between atoms: _641  and  _643
REMARK  273  A    between atoms: _643  and  _644
REMARK  274  A    between atoms: _643  and  _646
REMARK  275  A    between atoms: _646  and  _647
REMARK  276  A    between atoms: _647  and  _648
REMARK  277  A    between atoms: _648  and  _649
REMARK  278  A    between atoms: _649  and  _650
REMARK  279  A    between atoms: _654  and  _656
REMARK  280  A    between atoms: _656  and  _657
REMARK  281  A    between atoms: _656  and  _659
REMARK                            x       y       z     vdW  Elec       q    Type
REMARK                         _______ _______ _______ _____ _____    ______ ____
ROOT
ATOM      1  O   HOH     1       1.374   8.265  31.187  0.00  0.00    +0.000 OA
ENDROOT
TORSDOF 0
REMARK  Name = ../refined-set-2016/2yki/2yki_pocket.pdb
REMARK  281 active torsions:
REMARK  status: ('A' for Active; 'I' for Inactive)
REMARK    1  A    between atoms: _1  and  _3
REMARK    2  A    between atoms: _3  and  _4
REMARK    3  A    between atoms: _3  and  _6
REMARK    4  A    between atoms: _6  and  _7
REMARK    5  A    between atoms: _13  and  _15
REMARK    6  A    between atoms: _15  and  _16
REMARK    7  A    between atoms: _19  and  _21
REMARK    8  A    between atoms: _21  and  _22
REMARK    9  A    between atoms: _21  and  _24
REMARK   10  A    between atoms: _24  and  _25
REMARK   11  A    between atoms: _31  and  _33
REMARK   12  A    between atoms: _33  and  _34
REMARK   13  A    between atoms: _33  and  _36
REMARK   14  A    between atoms: _36  and  _37
REMARK   15  A    between atoms: _37  and  _38
REMARK   16  A    between atoms: _43  and  _45
REMARK   17  A    between atoms: _45  and  _46
REMARK   18  A    between atoms: _45  and  _48
REMARK   19  A    between atoms: _48  and  _49
REMARK   20  A    between atoms: _52  and  _54
REMARK   21  A    between atoms: _54  and  _55
REMARK   22  A    between atoms: _58  and  _60
REMARK   23  A    between atoms: _60  and  _61
REMARK   24  A    between atoms: _60  and  _63
REMARK   25  A    between atoms: _63  and  _64
REMARK   26  A    between atoms: _67  and  _69
REMARK   27  A    between atoms: _69  and  _70
REMARK   28  A    between atoms: _69  and  _72
REMARK   29  A    between atoms: _72  and  _73
REMARK   30  A    between atoms: _73  and  _74
REMARK   31  A    between atoms: _76  and  _78
REMARK   32  A    between atoms: _78  and  _79
REMARK   33  A    between atoms: _78  and  _81
REMARK   34  A    between atoms: _81  and  _82
REMARK   35  A    between atoms: _82  and  _83
REMARK   36  A    between atoms: _86  and  _88
REMARK   37  A    between atoms: _88  and  _89
REMARK   38  A    between atoms: _88  and  _91
REMARK   39  A    between atoms: _91  and  _92
REMARK   40  A    between atoms: _95  and  _97
REMARK   41  A    between atoms: _97  and  _98
REMARK   42  A    between atoms: _97  and  _100
REMARK   43  A    between atoms: _100  and  _101
REMARK   44  A    between atoms: _104  and  _106
REMARK   45  A    between atoms: _106  and  _107
REMARK   46  A    between atoms: _106  and  _109
REMARK   47  A    between atoms: _109  and  _110
REMARK   48  A    between atoms: _112  and  _114
REMARK   49  A    between atoms: _114  and  _115
REMARK   50  A    between atoms: _114  and  _117
REMARK   51  A    between atoms: _117  and  _118
REMARK   52  A    between atoms: _123  and  _125
REMARK   53  A    between atoms: _125  and  _126
REMARK   54  A    between atoms: _125  and  _128
REMARK   55  A    between atoms: _128  and  _129
REMARK   56  A    between atoms: _131  and  _133
REMARK   57  A    between atoms: _133  and  _134
REMARK   58  A    between atoms: _133  and  _136
REMARK   59  A    between atoms: _136  and  _137
REMARK   60  A    between atoms: _139  and  _141
REMARK   61  A    between atoms: _141  and  _142
REMARK   62  A    between atoms: _141  and  _144
REMARK   63  A    between atoms: _144  and  _145
REMARK   64  A    between atoms: _148  and  _150
REMARK   65  A    between atoms: _150  and  _151
REMARK   66  A    between atoms: _154  and  _156
REMARK   67  A    between atoms: _156  and  _157
REMARK   68  A    between atoms: _156  and  _159
REMARK   69  A    between atoms: _159  and  _160
REMARK   70  A    between atoms: _163  and  _165
REMARK   71  A    between atoms: _165  and  _166
REMARK   72  A    between atoms: _165  and  _168
REMARK   73  A    between atoms: _168  and  _169
REMARK   74  A    between atoms: _169  and  _170
REMARK   75  A    between atoms: _170  and  _171
REMARK   76  A    between atoms: _171  and  _172
REMARK   77  A    between atoms: _176  and  _178
REMARK   78  A    between atoms: _178  and  _179
REMARK   79  A    between atoms: _178  and  _181
REMARK   80  A    between atoms: _181  and  _182
REMARK   81  A    between atoms: _185  and  _187
REMARK   82  A    between atoms: _187  and  _188
REMARK   83  A    between atoms: _187  and  _190
REMARK   84  A    between atoms: _190  and  _191
REMARK   85  A    between atoms: _194  and  _196
REMARK   86  A    between atoms: _196  and  _197
REMARK   87  A    between atoms: _196  and  _199
REMARK   88  A    between atoms: _202  and  _204
REMARK   89  A    between atoms: _204  and  _205
REMARK   90  A    between atoms: _204  and  _207
REMARK   91  A    between atoms: _207  and  _208
REMARK   92  A    between atoms: _211  and  _213
REMARK   93  A    between atoms: _213  and  _214
REMARK   94  A    between atoms: _213  and  _216
REMARK   95  A    between atoms: _216  and  _217
REMARK   96  A    between atoms: _220  and  _222
REMARK   97  A    between atoms: _222  and  _223
REMARK   98  A    between atoms: _225  and  _227
REMARK   99  A    between atoms: _227  and  _228
REMARK  100  A    between atoms: _227  and  _230
REMARK  101  A    between atoms: _230  and  _231
REMARK  102  A    between atoms: _234  and  _236
REMARK  103  A    between atoms: _236  and  _237
REMARK  104  A    between atoms: _239  and  _241
REMARK  105  A    between atoms: _241  and  _242
REMARK  106  A    between atoms: _241  and  _244
REMARK  107  A    between atoms: _244  and  _245
REMARK  108  A    between atoms: _245  and  _246
REMARK  109  A    between atoms: _248  and  _250
REMARK  110  A    between atoms: _250  and  _251
REMARK  111  A    between atoms: _250  and  _253
REMARK  112  A    between atoms: _253  and  _254
REMARK  113  A    between atoms: _257  and  _259
REMARK  114  A    between atoms: _259  and  _260
REMARK  115  A    between atoms: _259  and  _262
REMARK  116  A    between atoms: _262  and  _263
REMARK  117  A    between atoms: _263  and  _264
REMARK  118  A    between atoms: _264  and  _265
REMARK  119  A    between atoms: _265  and  _266
REMARK  120  A    between atoms: _270  and  _272
REMARK  121  A    between atoms: _272  and  _273
REMARK  122  A    between atoms: _276  and  _278
REMARK  123  A    between atoms: _278  and  _279
REMARK  124  A    between atoms: _278  and  _281
REMARK  125  A    between atoms: _281  and  _282
REMARK  126  A    between atoms: _285  and  _287
REMARK  127  A    between atoms: _287  and  _288
REMARK  128  A    between atoms: _287  and  _290
REMARK  129  A    between atoms: _290  and  _291
REMARK  130  A    between atoms: _294  and  _296
REMARK  131  A    between atoms: _296  and  _297
REMARK  132  A    between atoms: _296  and  _299
REMARK  133  A    between atoms: _299  and  _300
REMARK  134  A    between atoms: _303  and  _305
REMARK  135  A    between atoms: _305  and  _306
REMARK  136  A    between atoms: _305  and  _308
REMARK  137  A    between atoms: _308  and  _309
REMARK  138  A    between atoms: _314  and  _316
REMARK  139  A    between atoms: _316  and  _317
REMARK  140  A    between atoms: _316  and  _319
REMARK  141  A    between atoms: _319  and  _320
REMARK  142  A    between atoms: _325  and  _327
REMARK  143  A    between atoms: _327  and  _328
REMARK  144  A    between atoms: _327  and  _330
REMARK  145  A    between atoms: _330  and  _331
REMARK  146  A    between atoms: _334  and  _336
REMARK  147  A    between atoms: _336  and  _337
REMARK  148  A    between atoms: _339  and  _341
REMARK  149  A    between atoms: _341  and  _342
REMARK  150  A    between atoms: _341  and  _344
REMARK  151  A    between atoms: _344  and  _345
REMARK  152  A    between atoms: _348  and  _350
REMARK  153  A    between atoms: _350  and  _351
REMARK  154  A    between atoms: _350  and  _353
REMARK  155  A    between atoms: _353  and  _354
REMARK  156  A    between atoms: _357  and  _359
REMARK  157  A    between atoms: _359  and  _360
REMARK  158  A    between atoms: _363  and  _365
REMARK  159  A    between atoms: _365  and  _366
REMARK  160  A    between atoms: _365  and  _368
REMARK  161  A    between atoms: _368  and  _369
REMARK  162  A    between atoms: _369  and  _370
REMARK  163  A    between atoms: _370  and  _371
REMARK  164  A    between atoms: _371  and  _372
REMARK  165  A    between atoms: _376  and  _378
REMARK  166  A    between atoms: _378  and  _379
REMARK  167  A    between atoms: _378  and  _381
REMARK  168  A    between atoms: _381  and  _382
REMARK  169  A    between atoms: _384  and  _386
REMARK  170  A    between atoms: _386  and  _387
REMARK  171  A    between atoms: _389  and  _391
REMARK  172  A    between atoms: _391  and  _392
REMARK  173  A    between atoms: _391  and  _394
REMARK  174  A    between atoms: _394  and  _395
REMARK  175  A    between atoms: _398  and  _400
REMARK  176  A    between atoms: _400  and  _401
REMARK  177  A    between atoms: _400  and  _403
REMARK  178  A    between atoms: _403  and  _404
REMARK  179  A    between atoms: _410  and  _412
REMARK  180  A    between atoms: _412  and  _413
REMARK  181  A    between atoms: _415  and  _417
REMARK  182  A    between atoms: _417  and  _418
REMARK  183  A    between atoms: _417  and  _420
REMARK  184  A    between atoms: _423  and  _425
REMARK  185  A    between atoms: _425  and  _426
REMARK  186  A    between atoms: _428  and  _430
REMARK  187  A    between atoms: _430  and  _431
REMARK  188  A    between atoms: _430  and  _433
REMARK  189  A    between atoms: _433  and  _434
REMARK  190  A    between atoms: _440  and  _442
REMARK  191  A    between atoms: _442  and  _443
REMARK  192  A    between atoms: _442  and  _445
REMARK  193  A    between atoms: _445  and  _446
REMARK  194  A    between atoms: _451  and  _452
REMARK  195  A    between atoms: _454  and  _456
REMARK  196  A    between atoms: _456  and  _457
REMARK  197  A    between atoms: _456  and  _459
REMARK  198  A    between atoms: _459  and  _460
REMARK  199  A    between atoms: _462  and  _464
REMARK  200  A    between atoms: _464  and  _465
REMARK  201  A    between atoms: _468  and  _470
REMARK  202  A    between atoms: _470  and  _471
REMARK  203  A    between atoms: _470  and  _473
REMARK  204  A    between atoms: _473  and  _474
REMARK  205  A    between atoms: _479  and  _480
REMARK  206  A    between atoms: _482  and  _484
REMARK  207  A    between atoms: _484  and  _485
REMARK  208  A    between atoms: _484  and  _487
REMARK  209  A    between atoms: _490  and  _492
REMARK  210  A    between atoms: _492  and  _493
REMARK  211  A    between atoms: _492  and  _495
REMARK  212  A    between atoms: _495  and  _496
REMARK  213  A    between atoms: _499  and  _501
REMARK  214  A    between atoms: _501  and  _502
REMARK  215  A    between atoms: _501  and  _504
REMARK  216  A    between atoms: _507  and  _509
REMARK  217  A    between atoms: _509  and  _510
REMARK  218  A    between atoms: _509  and  _512
REMARK  219  A    between atoms: _512  and  _513
REMARK  220  A    between atoms: _516  and  _518
REMARK  221  A    between atoms: _518  and  _519
REMARK  222  A    between atoms: _518  and  _521
REMARK  223  A    between atoms: _521  and  _522
REMARK  224  A    between atoms: _525  and  _527
REMARK  225  A    between atoms: _527  and  _528
REMARK  226  A    between atoms: _527  and  _530
REMARK  227  A    between atoms: _530  and  _531
REMARK  228  A    between atoms: _531  and  _532
REMARK  229  A    between atoms: _532  and  _533
REMARK  230  A    between atoms: _533  and  _534
REMARK  231  A    between atoms: _538  and  _540
REMARK  232  A    between atoms: _540  and  _541
REMARK  233  A    between atoms: _540  and  _543
REMARK  234  A    between atoms: _543  and  _544
REMARK  235  A    between atoms: _549  and  _551
REMARK  236  A    between atoms: _551  and  _552
REMARK  237  A    between atoms: _555  and  _557
REMARK  238  A    between atoms: _557  and  _558
REMARK  239  A    between atoms: _557  and  _560
REMARK  240  A    between atoms: _560  and  _561
REMARK  241  A    between atoms: _571  and  _573
REMARK  242  A    between atoms: _573  and  _574
REMARK  243  A    between atoms: _573  and  _576
REMARK  244  A    between atoms: _576  and  _577
REMARK  245  A    between atoms: _577  and  _578
REMARK  246  A    between atoms: _581  and  _583
REMARK  247  A    between atoms: _583  and  _584
REMARK  248  A    between atoms: _583  and  _586
REMARK  249  A    between atoms: _586  and  _587
REMARK  250  A    between atoms: _589  and  _591
REMARK  251  A    between atoms: _591  and  _592
REMARK  252  A    between atoms: _591  and  _594
REMARK  253  A    between atoms: _594  and  _595
REMARK  254  A    between atoms: _601  and  _603
REMARK  255  A    between atoms: _603  and  _604
REMARK  256  A    between atoms: _603  and  _606
REMARK  257  A    between atoms: _606  and  _607
REMARK  258  A    between atoms: _610  and  _612
REMARK  259  A    between atoms: _612  and  _613
REMARK  260  A    between atoms: _612  and  _615
REMARK  261  A    between atoms: _618  and  _620
REMARK  262  A    between atoms: _620  and  _621
REMARK  263  A    between atoms: _620  and  _623
REMARK  264  A    between atoms: _623  and  _624
REMARK  265  A    between atoms: _624  and  _625
REMARK  266  A    between atoms: _627  and  _629
REMARK  267  A    between atoms: _629  and  _630
REMARK  268  A    between atoms: _632  and  _634
REMARK  269  A    between atoms: _634  and  _635
REMARK  270  A    between atoms: _634  and  _637
REMARK  271  A    between atoms: _637  and  _638
REMARK  272  A    between atoms: _641  and  _643
REMARK  273  A    between atoms: _643  and  _644
REMARK  274  A    between atoms: _643  and  _646
REMARK  275  A    between atoms: _646  and  _647
REMARK  276  A    between atoms: _647  and  _648
REMARK  277  A    between atoms: _648  and  _649
REMARK  278  A    between atoms: _649  and  _650
REMARK  279  A    between atoms: _654  and  _656
REMARK  280  A    between atoms: _656  and  _657
REMARK  281  A    between atoms: _656  and  _659
REMARK                            x       y       z     vdW  Elec       q    Type
REMARK                         _______ _______ _______ _____ _____    ______ ____
ROOT
ATOM      1  O   HOH     1      14.694  12.665  30.412  0.00  0.00    +0.000 OA
ENDROOT
TORSDOF 0
REMARK  Name = ../refined-set-2016/2yki/2yki_pocket.pdb
REMARK  281 active torsions:
REMARK  status: ('A' for Active; 'I' for Inactive)
REMARK    1  A    between atoms: _1  and  _3
REMARK    2  A    between atoms: _3  and  _4
REMARK    3  A    between atoms: _3  and  _6
REMARK    4  A    between atoms: _6  and  _7
REMARK    5  A    between atoms: _13  and  _15
REMARK    6  A    between atoms: _15  and  _16
REMARK    7  A    between atoms: _19  and  _21
REMARK    8  A    between atoms: _21  and  _22
REMARK    9  A    between atoms: _21  and  _24
REMARK   10  A    between atoms: _24  and  _25
REMARK   11  A    between atoms: _31  and  _33
REMARK   12  A    between atoms: _33  and  _34
REMARK   13  A    between atoms: _33  and  _36
REMARK   14  A    between atoms: _36  and  _37
REMARK   15  A    between atoms: _37  and  _38
REMARK   16  A    between atoms: _43  and  _45
REMARK   17  A    between atoms: _45  and  _46
REMARK   18  A    between atoms: _45  and  _48
REMARK   19  A    between atoms: _48  and  _49
REMARK   20  A    between atoms: _52  and  _54
REMARK   21  A    between atoms: _54  and  _55
REMARK   22  A    between atoms: _58  and  _60
REMARK   23  A    between atoms: _60  and  _61
REMARK   24  A    between atoms: _60  and  _63
REMARK   25  A    between atoms: _63  and  _64
REMARK   26  A    between atoms: _67  and  _69
REMARK   27  A    between atoms: _69  and  _70
REMARK   28  A    between atoms: _69  and  _72
REMARK   29  A    between atoms: _72  and  _73
REMARK   30  A    between atoms: _73  and  _74
REMARK   31  A    between atoms: _76  and  _78
REMARK   32  A    between atoms: _78  and  _79
REMARK   33  A    between atoms: _78  and  _81
REMARK   34  A    between atoms: _81  and  _82
REMARK   35  A    between atoms: _82  and  _83
REMARK   36  A    between atoms: _86  and  _88
REMARK   37  A    between atoms: _88  and  _89
REMARK   38  A    between atoms: _88  and  _91
REMARK   39  A    between atoms: _91  and  _92
REMARK   40  A    between atoms: _95  and  _97
REMARK   41  A    between atoms: _97  and  _98
REMARK   42  A    between atoms: _97  and  _100
REMARK   43  A    between atoms: _100  and  _101
REMARK   44  A    between atoms: _104  and  _106
REMARK   45  A    between atoms: _106  and  _107
REMARK   46  A    between atoms: _106  and  _109
REMARK   47  A    between atoms: _109  and  _110
REMARK   48  A    between atoms: _112  and  _114
REMARK   49  A    between atoms: _114  and  _115
REMARK   50  A    between atoms: _114  and  _117
REMARK   51  A    between atoms: _117  and  _118
REMARK   52  A    between atoms: _123  and  _125
REMARK   53  A    between atoms: _125  and  _126
REMARK   54  A    between atoms: _125  and  _128
REMARK   55  A    between atoms: _128  and  _129
REMARK   56  A    between atoms: _131  and  _133
REMARK   57  A    between atoms: _133  and  _134
REMARK   58  A    between atoms: _133  and  _136
REMARK   59  A    between atoms: _136  and  _137
REMARK   60  A    between atoms: _139  and  _141
REMARK   61  A    between atoms: _141  and  _142
REMARK   62  A    between atoms: _141  and  _144
REMARK   63  A    between atoms: _144  and  _145
REMARK   64  A    between atoms: _148  and  _150
REMARK   65  A    between atoms: _150  and  _151
REMARK   66  A    between atoms: _154  and  _156
REMARK   67  A    between atoms: _156  and  _157
REMARK   68  A    between atoms: _156  and  _159
REMARK   69  A    between atoms: _159  and  _160
REMARK   70  A    between atoms: _163  and  _165
REMARK   71  A    between atoms: _165  and  _166
REMARK   72  A    between atoms: _165  and  _168
REMARK   73  A    between atoms: _168  and  _169
REMARK   74  A    between atoms: _169  and  _170
REMARK   75  A    between atoms: _170  and  _171
REMARK   76  A    between atoms: _171  and  _172
REMARK   77  A    between atoms: _176  and  _178
REMARK   78  A    between atoms: _178  and  _179
REMARK   79  A    between atoms: _178  and  _181
REMARK   80  A    between atoms: _181  and  _182
REMARK   81  A    between atoms: _185  and  _187
REMARK   82  A    between atoms: _187  and  _188
REMARK   83  A    between atoms: _187  and  _190
REMARK   84  A    between atoms: _190  and  _191
REMARK   85  A    between atoms: _194  and  _196
REMARK   86  A    between atoms: _196  and  _197
REMARK   87  A    between atoms: _196  and  _199
REMARK   88  A    between atoms: _202  and  _204
REMARK   89  A    between atoms: _204  and  _205
REMARK   90  A    between atoms: _204  and  _207
REMARK   91  A    between atoms: _207  and  _208
REMARK   92  A    between atoms: _211  and  _213
REMARK   93  A    between atoms: _213  and  _214
REMARK   94  A    between atoms: _213  and  _216
REMARK   95  A    between atoms: _216  and  _217
REMARK   96  A    between atoms: _220  and  _222
REMARK   97  A    between atoms: _222  and  _223
REMARK   98  A    between atoms: _225  and  _227
REMARK   99  A    between atoms: _227  and  _228
REMARK  100  A    between atoms: _227  and  _230
REMARK  101  A    between atoms: _230  and  _231
REMARK  102  A    between atoms: _234  and  _236
REMARK  103  A    between atoms: _236  and  _237
REMARK  104  A    between atoms: _239  and  _241
REMARK  105  A    between atoms: _241  and  _242
REMARK  106  A    between atoms: _241  and  _244
REMARK  107  A    between atoms: _244  and  _245
REMARK  108  A    between atoms: _245  and  _246
REMARK  109  A    between atoms: _248  and  _250
REMARK  110  A    between atoms: _250  and  _251
REMARK  111  A    between atoms: _250  and  _253
REMARK  112  A    between atoms: _253  and  _254
REMARK  113  A    between atoms: _257  and  _259
REMARK  114  A    between atoms: _259  and  _260
REMARK  115  A    between atoms: _259  and  _262
REMARK  116  A    between atoms: _262  and  _263
REMARK  117  A    between atoms: _263  and  _264
REMARK  118  A    between atoms: _264  and  _265
REMARK  119  A    between atoms: _265  and  _266
REMARK  120  A    between atoms: _270  and  _272
REMARK  121  A    between atoms: _272  and  _273
REMARK  122  A    between atoms: _276  and  _278
REMARK  123  A    between atoms: _278  and  _279
REMARK  124  A    between atoms: _278  and  _281
REMARK  125  A    between atoms: _281  and  _282
REMARK  126  A    between atoms: _285  and  _287
REMARK  127  A    between atoms: _287  and  _288
REMARK  128  A    between atoms: _287  and  _290
REMARK  129  A    between atoms: _290  and  _291
REMARK  130  A    between atoms: _294  and  _296
REMARK  131  A    between atoms: _296  and  _297
REMARK  132  A    between atoms: _296  and  _299
REMARK  133  A    between atoms: _299  and  _300
REMARK  134  A    between atoms: _303  and  _305
REMARK  135  A    between atoms: _305  and  _306
REMARK  136  A    between atoms: _305  and  _308
REMARK  137  A    between atoms: _308  and  _309
REMARK  138  A    between atoms: _314  and  _316
REMARK  139  A    between atoms: _316  and  _317
REMARK  140  A    between atoms: _316  and  _319
REMARK  141  A    between atoms: _319  and  _320
REMARK  142  A    between atoms: _325  and  _327
REMARK  143  A    between atoms: _327  and  _328
REMARK  144  A    between atoms: _327  and  _330
REMARK  145  A    between atoms: _330  and  _331
REMARK  146  A    between atoms: _334  and  _336
REMARK  147  A    between atoms: _336  and  _337
REMARK  148  A    between atoms: _339  and  _341
REMARK  149  A    between atoms: _341  and  _342
REMARK  150  A    between atoms: _341  and  _344
REMARK  151  A    between atoms: _344  and  _345
REMARK  152  A    between atoms: _348  and  _350
REMARK  153  A    between atoms: _350  and  _351
REMARK  154  A    between atoms: _350  and  _353
REMARK  155  A    between atoms: _353  and  _354
REMARK  156  A    between atoms: _357  and  _359
REMARK  157  A    between atoms: _359  and  _360
REMARK  158  A    between atoms: _363  and  _365
REMARK  159  A    between atoms: _365  and  _366
REMARK  160  A    between atoms: _365  and  _368
REMARK  161  A    between atoms: _368  and  _369
REMARK  162  A    between atoms: _369  and  _370
REMARK  163  A    between atoms: _370  and  _371
REMARK  164  A    between atoms: _371  and  _372
REMARK  165  A    between atoms: _376  and  _378
REMARK  166  A    between atoms: _378  and  _379
REMARK  167  A    between atoms: _378  and  _381
REMARK  168  A    between atoms: _381  and  _382
REMARK  169  A    between atoms: _384  and  _386
REMARK  170  A    between atoms: _386  and  _387
REMARK  171  A    between atoms: _389  and  _391
REMARK  172  A    between atoms: _391  and  _392
REMARK  173  A    between atoms: _391  and  _394
REMARK  174  A    between atoms: _394  and  _395
REMARK  175  A    between atoms: _398  and  _400
REMARK  176  A    between atoms: _400  and  _401
REMARK  177  A    between atoms: _400  and  _403
REMARK  178  A    between atoms: _403  and  _404
REMARK  179  A    between atoms: _410  and  _412
REMARK  180  A    between atoms: _412  and  _413
REMARK  181  A    between atoms: _415  and  _417
REMARK  182  A    between atoms: _417  and  _418
REMARK  183  A    between atoms: _417  and  _420
REMARK  184  A    between atoms: _423  and  _425
REMARK  185  A    between atoms: _425  and  _426
REMARK  186  A    between atoms: _428  and  _430
REMARK  187  A    between atoms: _430  and  _431
REMARK  188  A    between atoms: _430  and  _433
REMARK  189  A    between atoms: _433  and  _434
REMARK  190  A    between atoms: _440  and  _442
REMARK  191  A    between atoms: _442  and  _443
REMARK  192  A    between atoms: _442  and  _445
REMARK  193  A    between atoms: _445  and  _446
REMARK  194  A    between atoms: _451  and  _452
REMARK  195  A    between atoms: _454  and  _456
REMARK  196  A    between atoms: _456  and  _457
REMARK  197  A    between atoms: _456  and  _459
REMARK  198  A    between atoms: _459  and  _460
REMARK  199  A    between atoms: _462  and  _464
REMARK  200  A    between atoms: _464  and  _465
REMARK  201  A    between atoms: _468  and  _470
REMARK  202  A    between atoms: _470  and  _471
REMARK  203  A    between atoms: _470  and  _473
REMARK  204  A    between atoms: _473  and  _474
REMARK  205  A    between atoms: _479  and  _480
REMARK  206  A    between atoms: _482  and  _484
REMARK  207  A    between atoms: _484  and  _485
REMARK  208  A    between atoms: _484  and  _487
REMARK  209  A    between atoms: _490  and  _492
REMARK  210  A    between atoms: _492  and  _493
REMARK  211  A    between atoms: _492  and  _495
REMARK  212  A    between atoms: _495  and  _496
REMARK  213  A    between atoms: _499  and  _501
REMARK  214  A    between atoms: _501  and  _502
REMARK  215  A    between atoms: _501  and  _504
REMARK  216  A    between atoms: _507  and  _509
REMARK  217  A    between atoms: _509  and  _510
REMARK  218  A    between atoms: _509  and  _512
REMARK  219  A    between atoms: _512  and  _513
REMARK  220  A    between atoms: _516  and  _518
REMARK  221  A    between atoms: _518  and  _519
REMARK  222  A    between atoms: _518  and  _521
REMARK  223  A    between atoms: _521  and  _522
REMARK  224  A    between atoms: _525  and  _527
REMARK  225  A    between atoms: _527  and  _528
REMARK  226  A    between atoms: _527  and  _530
REMARK  227  A    between atoms: _530  and  _531
REMARK  228  A    between atoms: _531  and  _532
REMARK  229  A    between atoms: _532  and  _533
REMARK  230  A    between atoms: _533  and  _534
REMARK  231  A    between atoms: _538  and  _540
REMARK  232  A    between atoms: _540  and  _541
REMARK  233  A    between atoms: _540  and  _543
REMARK  234  A    between atoms: _543  and  _544
REMARK  235  A    between atoms: _549  and  _551
REMARK  236  A    between atoms: _551  and  _552
REMARK  237  A    between atoms: _555  and  _557
REMARK  238  A    between atoms: _557  and  _558
REMARK  239  A    between atoms: _557  and  _560
REMARK  240  A    between atoms: _560  and  _561
REMARK  241  A    between atoms: _571  and  _573
REMARK  242  A    between atoms: _573  and  _574
REMARK  243  A    between atoms: _573  and  _576
REMARK  244  A    between atoms: _576  and  _577
REMARK  245  A    between atoms: _577  and  _578
REMARK  246  A    between atoms: _581  and  _583
REMARK  247  A    between atoms: _583  and  _584
REMARK  248  A    between atoms: _583  and  _586
REMARK  249  A    between atoms: _586  and  _587
REMARK  250  A    between atoms: _589  and  _591
REMARK  251  A    between atoms: _591  and  _592
REMARK  252  A    between atoms: _591  and  _594
REMARK  253  A    between atoms: _594  and  _595
REMARK  254  A    between atoms: _601  and  _603
REMARK  255  A    between atoms: _603  and  _604
REMARK  256  A    between atoms: _603  and  _606
REMARK  257  A    between atoms: _606  and  _607
REMARK  258  A    between atoms: _610  and  _612
REMARK  259  A    between atoms: _612  and  _613
REMARK  260  A    between atoms: _612  and  _615
REMARK  261  A    between atoms: _618  and  _620
REMARK  262  A    between atoms: _620  and  _621
REMARK  263  A    between atoms: _620  and  _623
REMARK  264  A    between atoms: _623  and  _624
REMARK  265  A    between atoms: _624  and  _625
REMARK  266  A    between atoms: _627  and  _629
REMARK  267  A    between atoms: _629  and  _630
REMARK  268  A    between atoms: _632  and  _634
REMARK  269  A    between atoms: _634  and  _635
REMARK  270  A    between atoms: _634  and  _637
REMARK  271  A    between atoms: _637  and  _638
REMARK  272  A    between atoms: _641  and  _643
REMARK  273  A    between atoms: _643  and  _644
REMARK  274  A    between atoms: _643  and  _646
REMARK  275  A    between atoms: _646  and  _647
REMARK  276  A    between atoms: _647  and  _648
REMARK  277  A    between atoms: _648  and  _649
REMARK  278  A    between atoms: _649  and  _650
REMARK  279  A    between atoms: _654  and  _656
REMARK  280  A    between atoms: _656  and  _657
REMARK  281  A    between atoms: _656  and  _659
REMARK                            x       y       z     vdW  Elec       q    Type
REMARK                         _______ _______ _______ _____ _____    ______ ____
ROOT
ATOM      1  O   HOH     1      14.489  15.807  30.977  0.00  0.00    +0.000 OA
ENDROOT
TORSDOF 0
REMARK  Name = ../refined-set-2016/2yki/2yki_pocket.pdb
REMARK  281 active torsions:
REMARK  status: ('A' for Active; 'I' for Inactive)
REMARK    1  A    between atoms: _1  and  _3
REMARK    2  A    between atoms: _3  and  _4
REMARK    3  A    between atoms: _3  and  _6
REMARK    4  A    between atoms: _6  and  _7
REMARK    5  A    between atoms: _13  and  _15
REMARK    6  A    between atoms: _15  and  _16
REMARK    7  A    between atoms: _19  and  _21
REMARK    8  A    between atoms: _21  and  _22
REMARK    9  A    between atoms: _21  and  _24
REMARK   10  A    between atoms: _24  and  _25
REMARK   11  A    between atoms: _31  and  _33
REMARK   12  A    between atoms: _33  and  _34
REMARK   13  A    between atoms: _33  and  _36
REMARK   14  A    between atoms: _36  and  _37
REMARK   15  A    between atoms: _37  and  _38
REMARK   16  A    between atoms: _43  and  _45
REMARK   17  A    between atoms: _45  and  _46
REMARK   18  A    between atoms: _45  and  _48
REMARK   19  A    between atoms: _48  and  _49
REMARK   20  A    between atoms: _52  and  _54
REMARK   21  A    between atoms: _54  and  _55
REMARK   22  A    between atoms: _58  and  _60
REMARK   23  A    between atoms: _60  and  _61
REMARK   24  A    between atoms: _60  and  _63
REMARK   25  A    between atoms: _63  and  _64
REMARK   26  A    between atoms: _67  and  _69
REMARK   27  A    between atoms: _69  and  _70
REMARK   28  A    between atoms: _69  and  _72
REMARK   29  A    between atoms: _72  and  _73
REMARK   30  A    between atoms: _73  and  _74
REMARK   31  A    between atoms: _76  and  _78
REMARK   32  A    between atoms: _78  and  _79
REMARK   33  A    between atoms: _78  and  _81
REMARK   34  A    between atoms: _81  and  _82
REMARK   35  A    between atoms: _82  and  _83
REMARK   36  A    between atoms: _86  and  _88
REMARK   37  A    between atoms: _88  and  _89
REMARK   38  A    between atoms: _88  and  _91
REMARK   39  A    between atoms: _91  and  _92
REMARK   40  A    between atoms: _95  and  _97
REMARK   41  A    between atoms: _97  and  _98
REMARK   42  A    between atoms: _97  and  _100
REMARK   43  A    between atoms: _100  and  _101
REMARK   44  A    between atoms: _104  and  _106
REMARK   45  A    between atoms: _106  and  _107
REMARK   46  A    between atoms: _106  and  _109
REMARK   47  A    between atoms: _109  and  _110
REMARK   48  A    between atoms: _112  and  _114
REMARK   49  A    between atoms: _114  and  _115
REMARK   50  A    between atoms: _114  and  _117
REMARK   51  A    between atoms: _117  and  _118
REMARK   52  A    between atoms: _123  and  _125
REMARK   53  A    between atoms: _125  and  _126
REMARK   54  A    between atoms: _125  and  _128
REMARK   55  A    between atoms: _128  and  _129
REMARK   56  A    between atoms: _131  and  _133
REMARK   57  A    between atoms: _133  and  _134
REMARK   58  A    between atoms: _133  and  _136
REMARK   59  A    between atoms: _136  and  _137
REMARK   60  A    between atoms: _139  and  _141
REMARK   61  A    between atoms: _141  and  _142
REMARK   62  A    between atoms: _141  and  _144
REMARK   63  A    between atoms: _144  and  _145
REMARK   64  A    between atoms: _148  and  _150
REMARK   65  A    between atoms: _150  and  _151
REMARK   66  A    between atoms: _154  and  _156
REMARK   67  A    between atoms: _156  and  _157
REMARK   68  A    between atoms: _156  and  _159
REMARK   69  A    between atoms: _159  and  _160
REMARK   70  A    between atoms: _163  and  _165
REMARK   71  A    between atoms: _165  and  _166
REMARK   72  A    between atoms: _165  and  _168
REMARK   73  A    between atoms: _168  and  _169
REMARK   74  A    between atoms: _169  and  _170
REMARK   75  A    between atoms: _170  and  _171
REMARK   76  A    between atoms: _171  and  _172
REMARK   77  A    between atoms: _176  and  _178
REMARK   78  A    between atoms: _178  and  _179
REMARK   79  A    between atoms: _178  and  _181
REMARK   80  A    between atoms: _181  and  _182
REMARK   81  A    between atoms: _185  and  _187
REMARK   82  A    between atoms: _187  and  _188
REMARK   83  A    between atoms: _187  and  _190
REMARK   84  A    between atoms: _190  and  _191
REMARK   85  A    between atoms: _194  and  _196
REMARK   86  A    between atoms: _196  and  _197
REMARK   87  A    between atoms: _196  and  _199
REMARK   88  A    between atoms: _202  and  _204
REMARK   89  A    between atoms: _204  and  _205
REMARK   90  A    between atoms: _204  and  _207
REMARK   91  A    between atoms: _207  and  _208
REMARK   92  A    between atoms: _211  and  _213
REMARK   93  A    between atoms: _213  and  _214
REMARK   94  A    between atoms: _213  and  _216
REMARK   95  A    between atoms: _216  and  _217
REMARK   96  A    between atoms: _220  and  _222
REMARK   97  A    between atoms: _222  and  _223
REMARK   98  A    between atoms: _225  and  _227
REMARK   99  A    between atoms: _227  and  _228
REMARK  100  A    between atoms: _227  and  _230
REMARK  101  A    between atoms: _230  and  _231
REMARK  102  A    between atoms: _234  and  _236
REMARK  103  A    between atoms: _236  and  _237
REMARK  104  A    between atoms: _239  and  _241
REMARK  105  A    between atoms: _241  and  _242
REMARK  106  A    between atoms: _241  and  _244
REMARK  107  A    between atoms: _244  and  _245
REMARK  108  A    between atoms: _245  and  _246
REMARK  109  A    between atoms: _248  and  _250
REMARK  110  A    between atoms: _250  and  _251
REMARK  111  A    between atoms: _250  and  _253
REMARK  112  A    between atoms: _253  and  _254
REMARK  113  A    between atoms: _257  and  _259
REMARK  114  A    between atoms: _259  and  _260
REMARK  115  A    between atoms: _259  and  _262
REMARK  116  A    between atoms: _262  and  _263
REMARK  117  A    between atoms: _263  and  _264
REMARK  118  A    between atoms: _264  and  _265
REMARK  119  A    between atoms: _265  and  _266
REMARK  120  A    between atoms: _270  and  _272
REMARK  121  A    between atoms: _272  and  _273
REMARK  122  A    between atoms: _276  and  _278
REMARK  123  A    between atoms: _278  and  _279
REMARK  124  A    between atoms: _278  and  _281
REMARK  125  A    between atoms: _281  and  _282
REMARK  126  A    between atoms: _285  and  _287
REMARK  127  A    between atoms: _287  and  _288
REMARK  128  A    between atoms: _287  and  _290
REMARK  129  A    between atoms: _290  and  _291
REMARK  130  A    between atoms: _294  and  _296
REMARK  131  A    between atoms: _296  and  _297
REMARK  132  A    between atoms: _296  and  _299
REMARK  133  A    between atoms: _299  and  _300
REMARK  134  A    between atoms: _303  and  _305
REMARK  135  A    between atoms: _305  and  _306
REMARK  136  A    between atoms: _305  and  _308
REMARK  137  A    between atoms: _308  and  _309
REMARK  138  A    between atoms: _314  and  _316
REMARK  139  A    between atoms: _316  and  _317
REMARK  140  A    between atoms: _316  and  _319
REMARK  141  A    between atoms: _319  and  _320
REMARK  142  A    between atoms: _325  and  _327
REMARK  143  A    between atoms: _327  and  _328
REMARK  144  A    between atoms: _327  and  _330
REMARK  145  A    between atoms: _330  and  _331
REMARK  146  A    between atoms: _334  and  _336
REMARK  147  A    between atoms: _336  and  _337
REMARK  148  A    between atoms: _339  and  _341
REMARK  149  A    between atoms: _341  and  _342
REMARK  150  A    between atoms: _341  and  _344
REMARK  151  A    between atoms: _344  and  _345
REMARK  152  A    between atoms: _348  and  _350
REMARK  153  A    between atoms: _350  and  _351
REMARK  154  A    between atoms: _350  and  _353
REMARK  155  A    between atoms: _353  and  _354
REMARK  156  A    between atoms: _357  and  _359
REMARK  157  A    between atoms: _359  and  _360
REMARK  158  A    between atoms: _363  and  _365
REMARK  159  A    between atoms: _365  and  _366
REMARK  160  A    between atoms: _365  and  _368
REMARK  161  A    between atoms: _368  and  _369
REMARK  162  A    between atoms: _369  and  _370
REMARK  163  A    between atoms: _370  and  _371
REMARK  164  A    between atoms: _371  and  _372
REMARK  165  A    between atoms: _376  and  _378
REMARK  166  A    between atoms: _378  and  _379
REMARK  167  A    between atoms: _378  and  _381
REMARK  168  A    between atoms: _381  and  _382
REMARK  169  A    between atoms: _384  and  _386
REMARK  170  A    between atoms: _386  and  _387
REMARK  171  A    between atoms: _389  and  _391
REMARK  172  A    between atoms: _391  and  _392
REMARK  173  A    between atoms: _391  and  _394
REMARK  174  A    between atoms: _394  and  _395
REMARK  175  A    between atoms: _398  and  _400
REMARK  176  A    between atoms: _400  and  _401
REMARK  177  A    between atoms: _400  and  _403
REMARK  178  A    between atoms: _403  and  _404
REMARK  179  A    between atoms: _410  and  _412
REMARK  180  A    between atoms: _412  and  _413
REMARK  181  A    between atoms: _415  and  _417
REMARK  182  A    between atoms: _417  and  _418
REMARK  183  A    between atoms: _417  and  _420
REMARK  184  A    between atoms: _423  and  _425
REMARK  185  A    between atoms: _425  and  _426
REMARK  186  A    between atoms: _428  and  _430
REMARK  187  A    between atoms: _430  and  _431
REMARK  188  A    between atoms: _430  and  _433
REMARK  189  A    between atoms: _433  and  _434
REMARK  190  A    between atoms: _440  and  _442
REMARK  191  A    between atoms: _442  and  _443
REMARK  192  A    between atoms: _442  and  _445
REMARK  193  A    between atoms: _445  and  _446
REMARK  194  A    between atoms: _451  and  _452
REMARK  195  A    between atoms: _454  and  _456
REMARK  196  A    between atoms: _456  and  _457
REMARK  197  A    between atoms: _456  and  _459
REMARK  198  A    between atoms: _459  and  _460
REMARK  199  A    between atoms: _462  and  _464
REMARK  200  A    between atoms: _464  and  _465
REMARK  201  A    between atoms: _468  and  _470
REMARK  202  A    between atoms: _470  and  _471
REMARK  203  A    between atoms: _470  and  _473
REMARK  204  A    between atoms: _473  and  _474
REMARK  205  A    between atoms: _479  and  _480
REMARK  206  A    between atoms: _482  and  _484
REMARK  207  A    between atoms: _484  and  _485
REMARK  208  A    between atoms: _484  and  _487
REMARK  209  A    between atoms: _490  and  _492
REMARK  210  A    between atoms: _492  and  _493
REMARK  211  A    between atoms: _492  and  _495
REMARK  212  A    between atoms: _495  and  _496
REMARK  213  A    between atoms: _499  and  _501
REMARK  214  A    between atoms: _501  and  _502
REMARK  215  A    between atoms: _501  and  _504
REMARK  216  A    between atoms: _507  and  _509
REMARK  217  A    between atoms: _509  and  _510
REMARK  218  A    between atoms: _509  and  _512
REMARK  219  A    between atoms: _512  and  _513
REMARK  220  A    between atoms: _516  and  _518
REMARK  221  A    between atoms: _518  and  _519
REMARK  222  A    between atoms: _518  and  _521
REMARK  223  A    between atoms: _521  and  _522
REMARK  224  A    between atoms: _525  and  _527
REMARK  225  A    between atoms: _527  and  _528
REMARK  226  A    between atoms: _527  and  _530
REMARK  227  A    between atoms: _530  and  _531
REMARK  228  A    between atoms: _531  and  _532
REMARK  229  A    between atoms: _532  and  _533
REMARK  230  A    between atoms: _533  and  _534
REMARK  231  A    between atoms: _538  and  _540
REMARK  232  A    between atoms: _540  and  _541
REMARK  233  A    between atoms: _540  and  _543
REMARK  234  A    between atoms: _543  and  _544
REMARK  235  A    between atoms: _549  and  _551
REMARK  236  A    between atoms: _551  and  _552
REMARK  237  A    between atoms: _555  and  _557
REMARK  238  A    between atoms: _557  and  _558
REMARK  239  A    between atoms: _557  and  _560
REMARK  240  A    between atoms: _560  and  _561
REMARK  241  A    between atoms: _571  and  _573
REMARK  242  A    between atoms: _573  and  _574
REMARK  243  A    between atoms: _573  and  _576
REMARK  244  A    between atoms: _576  and  _577
REMARK  245  A    between atoms: _577  and  _578
REMARK  246  A    between atoms: _581  and  _583
REMARK  247  A    between atoms: _583  and  _584
REMARK  248  A    between atoms: _583  and  _586
REMARK  249  A    between atoms: _586  and  _587
REMARK  250  A    between atoms: _589  and  _591
REMARK  251  A    between atoms: _591  and  _592
REMARK  252  A    between atoms: _591  and  _594
REMARK  253  A    between atoms: _594  and  _595
REMARK  254  A    between atoms: _601  and  _603
REMARK  255  A    between atoms: _603  and  _604
REMARK  256  A    between atoms: _603  and  _606
REMARK  257  A    between atoms: _606  and  _607
REMARK  258  A    between atoms: _610  and  _612
REMARK  259  A    between atoms: _612  and  _613
REMARK  260  A    between atoms: _612  and  _615
REMARK  261  A    between atoms: _618  and  _620
REMARK  262  A    between atoms: _620  and  _621
REMARK  263  A    between atoms: _620  and  _623
REMARK  264  A    between atoms: _623  and  _624
REMARK  265  A    between atoms: _624  and  _625
REMARK  266  A    between atoms: _627  and  _629
REMARK  267  A    between atoms: _629  and  _630
REMARK  268  A    between atoms: _632  and  _634
REMARK  269  A    between atoms: _634  and  _635
REMARK  270  A    between atoms: _634  and  _637
REMARK  271  A    between atoms: _637  and  _638
REMARK  272  A    between atoms: _641  and  _643
REMARK  273  A    between atoms: _643  and  _644
REMARK  274  A    between atoms: _643  and  _646
REMARK  275  A    between atoms: _646  and  _647
REMARK  276  A    between atoms: _647  and  _648
REMARK  277  A    between atoms: _648  and  _649
REMARK  278  A    between atoms: _649  and  _650
REMARK  279  A    between atoms: _654  and  _656
REMARK  280  A    between atoms: _656  and  _657
REMARK  281  A    between atoms: _656  and  _659
REMARK                            x       y       z     vdW  Elec       q    Type
REMARK                         _______ _______ _______ _____ _____    ______ ____
ROOT
ATOM      1  O   HOH     1      15.506  10.147  30.963  0.00  0.00    +0.000 OA
ENDROOT
TORSDOF 0
REMARK  Name = ../refined-set-2016/2yki/2yki_pocket.pdb
REMARK  281 active torsions:
REMARK  status: ('A' for Active; 'I' for Inactive)
REMARK    1  A    between atoms: _1  and  _3
REMARK    2  A    between atoms: _3  and  _4
REMARK    3  A    between atoms: _3  and  _6
REMARK    4  A    between atoms: _6  and  _7
REMARK    5  A    between atoms: _13  and  _15
REMARK    6  A    between atoms: _15  and  _16
REMARK    7  A    between atoms: _19  and  _21
REMARK    8  A    between atoms: _21  and  _22
REMARK    9  A    between atoms: _21  and  _24
REMARK   10  A    between atoms: _24  and  _25
REMARK   11  A    between atoms: _31  and  _33
REMARK   12  A    between atoms: _33  and  _34
REMARK   13  A    between atoms: _33  and  _36
REMARK   14  A    between atoms: _36  and  _37
REMARK   15  A    between atoms: _37  and  _38
REMARK   16  A    between atoms: _43  and  _45
REMARK   17  A    between atoms: _45  and  _46
REMARK   18  A    between atoms: _45  and  _48
REMARK   19  A    between atoms: _48  and  _49
REMARK   20  A    between atoms: _52  and  _54
REMARK   21  A    between atoms: _54  and  _55
REMARK   22  A    between atoms: _58  and  _60
REMARK   23  A    between atoms: _60  and  _61
REMARK   24  A    between atoms: _60  and  _63
REMARK   25  A    between atoms: _63  and  _64
REMARK   26  A    between atoms: _67  and  _69
REMARK   27  A    between atoms: _69  and  _70
REMARK   28  A    between atoms: _69  and  _72
REMARK   29  A    between atoms: _72  and  _73
REMARK   30  A    between atoms: _73  and  _74
REMARK   31  A    between atoms: _76  and  _78
REMARK   32  A    between atoms: _78  and  _79
REMARK   33  A    between atoms: _78  and  _81
REMARK   34  A    between atoms: _81  and  _82
REMARK   35  A    between atoms: _82  and  _83
REMARK   36  A    between atoms: _86  and  _88
REMARK   37  A    between atoms: _88  and  _89
REMARK   38  A    between atoms: _88  and  _91
REMARK   39  A    between atoms: _91  and  _92
REMARK   40  A    between atoms: _95  and  _97
REMARK   41  A    between atoms: _97  and  _98
REMARK   42  A    between atoms: _97  and  _100
REMARK   43  A    between atoms: _100  and  _101
REMARK   44  A    between atoms: _104  and  _106
REMARK   45  A    between atoms: _106  and  _107
REMARK   46  A    between atoms: _106  and  _109
REMARK   47  A    between atoms: _109  and  _110
REMARK   48  A    between atoms: _112  and  _114
REMARK   49  A    between atoms: _114  and  _115
REMARK   50  A    between atoms: _114  and  _117
REMARK   51  A    between atoms: _117  and  _118
REMARK   52  A    between atoms: _123  and  _125
REMARK   53  A    between atoms: _125  and  _126
REMARK   54  A    between atoms: _125  and  _128
REMARK   55  A    between atoms: _128  and  _129
REMARK   56  A    between atoms: _131  and  _133
REMARK   57  A    between atoms: _133  and  _134
REMARK   58  A    between atoms: _133  and  _136
REMARK   59  A    between atoms: _136  and  _137
REMARK   60  A    between atoms: _139  and  _141
REMARK   61  A    between atoms: _141  and  _142
REMARK   62  A    between atoms: _141  and  _144
REMARK   63  A    between atoms: _144  and  _145
REMARK   64  A    between atoms: _148  and  _150
REMARK   65  A    between atoms: _150  and  _151
REMARK   66  A    between atoms: _154  and  _156
REMARK   67  A    between atoms: _156  and  _157
REMARK   68  A    between atoms: _156  and  _159
REMARK   69  A    between atoms: _159  and  _160
REMARK   70  A    between atoms: _163  and  _165
REMARK   71  A    between atoms: _165  and  _166
REMARK   72  A    between atoms: _165  and  _168
REMARK   73  A    between atoms: _168  and  _169
REMARK   74  A    between atoms: _169  and  _170
REMARK   75  A    between atoms: _170  and  _171
REMARK   76  A    between atoms: _171  and  _172
REMARK   77  A    between atoms: _176  and  _178
REMARK   78  A    between atoms: _178  and  _179
REMARK   79  A    between atoms: _178  and  _181
REMARK   80  A    between atoms: _181  and  _182
REMARK   81  A    between atoms: _185  and  _187
REMARK   82  A    between atoms: _187  and  _188
REMARK   83  A    between atoms: _187  and  _190
REMARK   84  A    between atoms: _190  and  _191
REMARK   85  A    between atoms: _194  and  _196
REMARK   86  A    between atoms: _196  and  _197
REMARK   87  A    between atoms: _196  and  _199
REMARK   88  A    between atoms: _202  and  _204
REMARK   89  A    between atoms: _204  and  _205
REMARK   90  A    between atoms: _204  and  _207
REMARK   91  A    between atoms: _207  and  _208
REMARK   92  A    between atoms: _211  and  _213
REMARK   93  A    between atoms: _213  and  _214
REMARK   94  A    between atoms: _213  and  _216
REMARK   95  A    between atoms: _216  and  _217
REMARK   96  A    between atoms: _220  and  _222
REMARK   97  A    between atoms: _222  and  _223
REMARK   98  A    between atoms: _225  and  _227
REMARK   99  A    between atoms: _227  and  _228
REMARK  100  A    between atoms: _227  and  _230
REMARK  101  A    between atoms: _230  and  _231
REMARK  102  A    between atoms: _234  and  _236
REMARK  103  A    between atoms: _236  and  _237
REMARK  104  A    between atoms: _239  and  _241
REMARK  105  A    between atoms: _241  and  _242
REMARK  106  A    between atoms: _241  and  _244
REMARK  107  A    between atoms: _244  and  _245
REMARK  108  A    between atoms: _245  and  _246
REMARK  109  A    between atoms: _248  and  _250
REMARK  110  A    between atoms: _250  and  _251
REMARK  111  A    between atoms: _250  and  _253
REMARK  112  A    between atoms: _253  and  _254
REMARK  113  A    between atoms: _257  and  _259
REMARK  114  A    between atoms: _259  and  _260
REMARK  115  A    between atoms: _259  and  _262
REMARK  116  A    between atoms: _262  and  _263
REMARK  117  A    between atoms: _263  and  _264
REMARK  118  A    between atoms: _264  and  _265
REMARK  119  A    between atoms: _265  and  _266
REMARK  120  A    between atoms: _270  and  _272
REMARK  121  A    between atoms: _272  and  _273
REMARK  122  A    between atoms: _276  and  _278
REMARK  123  A    between atoms: _278  and  _279
REMARK  124  A    between atoms: _278  and  _281
REMARK  125  A    between atoms: _281  and  _282
REMARK  126  A    between atoms: _285  and  _287
REMARK  127  A    between atoms: _287  and  _288
REMARK  128  A    between atoms: _287  and  _290
REMARK  129  A    between atoms: _290  and  _291
REMARK  130  A    between atoms: _294  and  _296
REMARK  131  A    between atoms: _296  and  _297
REMARK  132  A    between atoms: _296  and  _299
REMARK  133  A    between atoms: _299  and  _300
REMARK  134  A    between atoms: _303  and  _305
REMARK  135  A    between atoms: _305  and  _306
REMARK  136  A    between atoms: _305  and  _308
REMARK  137  A    between atoms: _308  and  _309
REMARK  138  A    between atoms: _314  and  _316
REMARK  139  A    between atoms: _316  and  _317
REMARK  140  A    between atoms: _316  and  _319
REMARK  141  A    between atoms: _319  and  _320
REMARK  142  A    between atoms: _325  and  _327
REMARK  143  A    between atoms: _327  and  _328
REMARK  144  A    between atoms: _327  and  _330
REMARK  145  A    between atoms: _330  and  _331
REMARK  146  A    between atoms: _334  and  _336
REMARK  147  A    between atoms: _336  and  _337
REMARK  148  A    between atoms: _339  and  _341
REMARK  149  A    between atoms: _341  and  _342
REMARK  150  A    between atoms: _341  and  _344
REMARK  151  A    between atoms: _344  and  _345
REMARK  152  A    between atoms: _348  and  _350
REMARK  153  A    between atoms: _350  and  _351
REMARK  154  A    between atoms: _350  and  _353
REMARK  155  A    between atoms: _353  and  _354
REMARK  156  A    between atoms: _357  and  _359
REMARK  157  A    between atoms: _359  and  _360
REMARK  158  A    between atoms: _363  and  _365
REMARK  159  A    between atoms: _365  and  _366
REMARK  160  A    between atoms: _365  and  _368
REMARK  161  A    between atoms: _368  and  _369
REMARK  162  A    between atoms: _369  and  _370
REMARK  163  A    between atoms: _370  and  _371
REMARK  164  A    between atoms: _371  and  _372
REMARK  165  A    between atoms: _376  and  _378
REMARK  166  A    between atoms: _378  and  _379
REMARK  167  A    between atoms: _378  and  _381
REMARK  168  A    between atoms: _381  and  _382
REMARK  169  A    between atoms: _384  and  _386
REMARK  170  A    between atoms: _386  and  _387
REMARK  171  A    between atoms: _389  and  _391
REMARK  172  A    between atoms: _391  and  _392
REMARK  173  A    between atoms: _391  and  _394
REMARK  174  A    between atoms: _394  and  _395
REMARK  175  A    between atoms: _398  and  _400
REMARK  176  A    between atoms: _400  and  _401
REMARK  177  A    between atoms: _400  and  _403
REMARK  178  A    between atoms: _403  and  _404
REMARK  179  A    between atoms: _410  and  _412
REMARK  180  A    between atoms: _412  and  _413
REMARK  181  A    between atoms: _415  and  _417
REMARK  182  A    between atoms: _417  and  _418
REMARK  183  A    between atoms: _417  and  _420
REMARK  184  A    between atoms: _423  and  _425
REMARK  185  A    between atoms: _425  and  _426
REMARK  186  A    between atoms: _428  and  _430
REMARK  187  A    between atoms: _430  and  _431
REMARK  188  A    between atoms: _430  and  _433
REMARK  189  A    between atoms: _433  and  _434
REMARK  190  A    between atoms: _440  and  _442
REMARK  191  A    between atoms: _442  and  _443
REMARK  192  A    between atoms: _442  and  _445
REMARK  193  A    between atoms: _445  and  _446
REMARK  194  A    between atoms: _451  and  _452
REMARK  195  A    between atoms: _454  and  _456
REMARK  196  A    between atoms: _456  and  _457
REMARK  197  A    between atoms: _456  and  _459
REMARK  198  A    between atoms: _459  and  _460
REMARK  199  A    between atoms: _462  and  _464
REMARK  200  A    between atoms: _464  and  _465
REMARK  201  A    between atoms: _468  and  _470
REMARK  202  A    between atoms: _470  and  _471
REMARK  203  A    between atoms: _470  and  _473
REMARK  204  A    between atoms: _473  and  _474
REMARK  205  A    between atoms: _479  and  _480
REMARK  206  A    between atoms: _482  and  _484
REMARK  207  A    between atoms: _484  and  _485
REMARK  208  A    between atoms: _484  and  _487
REMARK  209  A    between atoms: _490  and  _492
REMARK  210  A    between atoms: _492  and  _493
REMARK  211  A    between atoms: _492  and  _495
REMARK  212  A    between atoms: _495  and  _496
REMARK  213  A    between atoms: _499  and  _501
REMARK  214  A    between atoms: _501  and  _502
REMARK  215  A    between atoms: _501  and  _504
REMARK  216  A    between atoms: _507  and  _509
REMARK  217  A    between atoms: _509  and  _510
REMARK  218  A    between atoms: _509  and  _512
REMARK  219  A    between atoms: _512  and  _513
REMARK  220  A    between atoms: _516  and  _518
REMARK  221  A    between atoms: _518  and  _519
REMARK  222  A    between atoms: _518  and  _521
REMARK  223  A    between atoms: _521  and  _522
REMARK  224  A    between atoms: _525  and  _527
REMARK  225  A    between atoms: _527  and  _528
REMARK  226  A    between atoms: _527  and  _530
REMARK  227  A    between atoms: _530  and  _531
REMARK  228  A    between atoms: _531  and  _532
REMARK  229  A    between atoms: _532  and  _533
REMARK  230  A    between atoms: _533  and  _534
REMARK  231  A    between atoms: _538  and  _540
REMARK  232  A    between atoms: _540  and  _541
REMARK  233  A    between atoms: _540  and  _543
REMARK  234  A    between atoms: _543  and  _544
REMARK  235  A    between atoms: _549  and  _551
REMARK  236  A    between atoms: _551  and  _552
REMARK  237  A    between atoms: _555  and  _557
REMARK  238  A    between atoms: _557  and  _558
REMARK  239  A    between atoms: _557  and  _560
REMARK  240  A    between atoms: _560  and  _561
REMARK  241  A    between atoms: _571  and  _573
REMARK  242  A    between atoms: _573  and  _574
REMARK  243  A    between atoms: _573  and  _576
REMARK  244  A    between atoms: _576  and  _577
REMARK  245  A    between atoms: _577  and  _578
REMARK  246  A    between atoms: _581  and  _583
REMARK  247  A    between atoms: _583  and  _584
REMARK  248  A    between atoms: _583  and  _586
REMARK  249  A    between atoms: _586  and  _587
REMARK  250  A    between atoms: _589  and  _591
REMARK  251  A    between atoms: _591  and  _592
REMARK  252  A    between atoms: _591  and  _594
REMARK  253  A    between atoms: _594  and  _595
REMARK  254  A    between atoms: _601  and  _603
REMARK  255  A    between atoms: _603  and  _604
REMARK  256  A    between atoms: _603  and  _606
REMARK  257  A    between atoms: _606  and  _607
REMARK  258  A    between atoms: _610  and  _612
REMARK  259  A    between atoms: _612  and  _613
REMARK  260  A    between atoms: _612  and  _615
REMARK  261  A    between atoms: _618  and  _620
REMARK  262  A    between atoms: _620  and  _621
REMARK  263  A    between atoms: _620  and  _623
REMARK  264  A    between atoms: _623  and  _624
REMARK  265  A    between atoms: _624  and  _625
REMARK  266  A    between atoms: _627  and  _629
REMARK  267  A    between atoms: _629  and  _630
REMARK  268  A    between atoms: _632  and  _634
REMARK  269  A    between atoms: _634  and  _635
REMARK  270  A    between atoms: _634  and  _637
REMARK  271  A    between atoms: _637  and  _638
REMARK  272  A    between atoms: _641  and  _643
REMARK  273  A    between atoms: _643  and  _644
REMARK  274  A    between atoms: _643  and  _646
REMARK  275  A    between atoms: _646  and  _647
REMARK  276  A    between atoms: _647  and  _648
REMARK  277  A    between atoms: _648  and  _649
REMARK  278  A    between atoms: _649  and  _650
REMARK  279  A    between atoms: _654  and  _656
REMARK  280  A    between atoms: _656  and  _657
REMARK  281  A    between atoms: _656  and  _659
REMARK                            x       y       z     vdW  Elec       q    Type
REMARK                         _______ _______ _______ _____ _____    ______ ____
ROOT
ATOM      1  O   HOH     1      15.769  10.940  33.635  0.00  0.00    +0.000 OA
ENDROOT
TORSDOF 0
REMARK  Name = ../refined-set-2016/2yki/2yki_pocket.pdb
REMARK  281 active torsions:
REMARK  status: ('A' for Active; 'I' for Inactive)
REMARK    1  A    between atoms: _1  and  _3
REMARK    2  A    between atoms: _3  and  _4
REMARK    3  A    between atoms: _3  and  _6
REMARK    4  A    between atoms: _6  and  _7
REMARK    5  A    between atoms: _13  and  _15
REMARK    6  A    between atoms: _15  and  _16
REMARK    7  A    between atoms: _19  and  _21
REMARK    8  A    between atoms: _21  and  _22
REMARK    9  A    between atoms: _21  and  _24
REMARK   10  A    between atoms: _24  and  _25
REMARK   11  A    between atoms: _31  and  _33
REMARK   12  A    between atoms: _33  and  _34
REMARK   13  A    between atoms: _33  and  _36
REMARK   14  A    between atoms: _36  and  _37
REMARK   15  A    between atoms: _37  and  _38
REMARK   16  A    between atoms: _43  and  _45
REMARK   17  A    between atoms: _45  and  _46
REMARK   18  A    between atoms: _45  and  _48
REMARK   19  A    between atoms: _48  and  _49
REMARK   20  A    between atoms: _52  and  _54
REMARK   21  A    between atoms: _54  and  _55
REMARK   22  A    between atoms: _58  and  _60
REMARK   23  A    between atoms: _60  and  _61
REMARK   24  A    between atoms: _60  and  _63
REMARK   25  A    between atoms: _63  and  _64
REMARK   26  A    between atoms: _67  and  _69
REMARK   27  A    between atoms: _69  and  _70
REMARK   28  A    between atoms: _69  and  _72
REMARK   29  A    between atoms: _72  and  _73
REMARK   30  A    between atoms: _73  and  _74
REMARK   31  A    between atoms: _76  and  _78
REMARK   32  A    between atoms: _78  and  _79
REMARK   33  A    between atoms: _78  and  _81
REMARK   34  A    between atoms: _81  and  _82
REMARK   35  A    between atoms: _82  and  _83
REMARK   36  A    between atoms: _86  and  _88
REMARK   37  A    between atoms: _88  and  _89
REMARK   38  A    between atoms: _88  and  _91
REMARK   39  A    between atoms: _91  and  _92
REMARK   40  A    between atoms: _95  and  _97
REMARK   41  A    between atoms: _97  and  _98
REMARK   42  A    between atoms: _97  and  _100
REMARK   43  A    between atoms: _100  and  _101
REMARK   44  A    between atoms: _104  and  _106
REMARK   45  A    between atoms: _106  and  _107
REMARK   46  A    between atoms: _106  and  _109
REMARK   47  A    between atoms: _109  and  _110
REMARK   48  A    between atoms: _112  and  _114
REMARK   49  A    between atoms: _114  and  _115
REMARK   50  A    between atoms: _114  and  _117
REMARK   51  A    between atoms: _117  and  _118
REMARK   52  A    between atoms: _123  and  _125
REMARK   53  A    between atoms: _125  and  _126
REMARK   54  A    between atoms: _125  and  _128
REMARK   55  A    between atoms: _128  and  _129
REMARK   56  A    between atoms: _131  and  _133
REMARK   57  A    between atoms: _133  and  _134
REMARK   58  A    between atoms: _133  and  _136
REMARK   59  A    between atoms: _136  and  _137
REMARK   60  A    between atoms: _139  and  _141
REMARK   61  A    between atoms: _141  and  _142
REMARK   62  A    between atoms: _141  and  _144
REMARK   63  A    between atoms: _144  and  _145
REMARK   64  A    between atoms: _148  and  _150
REMARK   65  A    between atoms: _150  and  _151
REMARK   66  A    between atoms: _154  and  _156
REMARK   67  A    between atoms: _156  and  _157
REMARK   68  A    between atoms: _156  and  _159
REMARK   69  A    between atoms: _159  and  _160
REMARK   70  A    between atoms: _163  and  _165
REMARK   71  A    between atoms: _165  and  _166
REMARK   72  A    between atoms: _165  and  _168
REMARK   73  A    between atoms: _168  and  _169
REMARK   74  A    between atoms: _169  and  _170
REMARK   75  A    between atoms: _170  and  _171
REMARK   76  A    between atoms: _171  and  _172
REMARK   77  A    between atoms: _176  and  _178
REMARK   78  A    between atoms: _178  and  _179
REMARK   79  A    between atoms: _178  and  _181
REMARK   80  A    between atoms: _181  and  _182
REMARK   81  A    between atoms: _185  and  _187
REMARK   82  A    between atoms: _187  and  _188
REMARK   83  A    between atoms: _187  and  _190
REMARK   84  A    between atoms: _190  and  _191
REMARK   85  A    between atoms: _194  and  _196
REMARK   86  A    between atoms: _196  and  _197
REMARK   87  A    between atoms: _196  and  _199
REMARK   88  A    between atoms: _202  and  _204
REMARK   89  A    between atoms: _204  and  _205
REMARK   90  A    between atoms: _204  and  _207
REMARK   91  A    between atoms: _207  and  _208
REMARK   92  A    between atoms: _211  and  _213
REMARK   93  A    between atoms: _213  and  _214
REMARK   94  A    between atoms: _213  and  _216
REMARK   95  A    between atoms: _216  and  _217
REMARK   96  A    between atoms: _220  and  _222
REMARK   97  A    between atoms: _222  and  _223
REMARK   98  A    between atoms: _225  and  _227
REMARK   99  A    between atoms: _227  and  _228
REMARK  100  A    between atoms: _227  and  _230
REMARK  101  A    between atoms: _230  and  _231
REMARK  102  A    between atoms: _234  and  _236
REMARK  103  A    between atoms: _236  and  _237
REMARK  104  A    between atoms: _239  and  _241
REMARK  105  A    between atoms: _241  and  _242
REMARK  106  A    between atoms: _241  and  _244
REMARK  107  A    between atoms: _244  and  _245
REMARK  108  A    between atoms: _245  and  _246
REMARK  109  A    between atoms: _248  and  _250
REMARK  110  A    between atoms: _250  and  _251
REMARK  111  A    between atoms: _250  and  _253
REMARK  112  A    between atoms: _253  and  _254
REMARK  113  A    between atoms: _257  and  _259
REMARK  114  A    between atoms: _259  and  _260
REMARK  115  A    between atoms: _259  and  _262
REMARK  116  A    between atoms: _262  and  _263
REMARK  117  A    between atoms: _263  and  _264
REMARK  118  A    between atoms: _264  and  _265
REMARK  119  A    between atoms: _265  and  _266
REMARK  120  A    between atoms: _270  and  _272
REMARK  121  A    between atoms: _272  and  _273
REMARK  122  A    between atoms: _276  and  _278
REMARK  123  A    between atoms: _278  and  _279
REMARK  124  A    between atoms: _278  and  _281
REMARK  125  A    between atoms: _281  and  _282
REMARK  126  A    between atoms: _285  and  _287
REMARK  127  A    between atoms: _287  and  _288
REMARK  128  A    between atoms: _287  and  _290
REMARK  129  A    between atoms: _290  and  _291
REMARK  130  A    between atoms: _294  and  _296
REMARK  131  A    between atoms: _296  and  _297
REMARK  132  A    between atoms: _296  and  _299
REMARK  133  A    between atoms: _299  and  _300
REMARK  134  A    between atoms: _303  and  _305
REMARK  135  A    between atoms: _305  and  _306
REMARK  136  A    between atoms: _305  and  _308
REMARK  137  A    between atoms: _308  and  _309
REMARK  138  A    between atoms: _314  and  _316
REMARK  139  A    between atoms: _316  and  _317
REMARK  140  A    between atoms: _316  and  _319
REMARK  141  A    between atoms: _319  and  _320
REMARK  142  A    between atoms: _325  and  _327
REMARK  143  A    between atoms: _327  and  _328
REMARK  144  A    between atoms: _327  and  _330
REMARK  145  A    between atoms: _330  and  _331
REMARK  146  A    between atoms: _334  and  _336
REMARK  147  A    between atoms: _336  and  _337
REMARK  148  A    between atoms: _339  and  _341
REMARK  149  A    between atoms: _341  and  _342
REMARK  150  A    between atoms: _341  and  _344
REMARK  151  A    between atoms: _344  and  _345
REMARK  152  A    between atoms: _348  and  _350
REMARK  153  A    between atoms: _350  and  _351
REMARK  154  A    between atoms: _350  and  _353
REMARK  155  A    between atoms: _353  and  _354
REMARK  156  A    between atoms: _357  and  _359
REMARK  157  A    between atoms: _359  and  _360
REMARK  158  A    between atoms: _363  and  _365
REMARK  159  A    between atoms: _365  and  _366
REMARK  160  A    between atoms: _365  and  _368
REMARK  161  A    between atoms: _368  and  _369
REMARK  162  A    between atoms: _369  and  _370
REMARK  163  A    between atoms: _370  and  _371
REMARK  164  A    between atoms: _371  and  _372
REMARK  165  A    between atoms: _376  and  _378
REMARK  166  A    between atoms: _378  and  _379
REMARK  167  A    between atoms: _378  and  _381
REMARK  168  A    between atoms: _381  and  _382
REMARK  169  A    between atoms: _384  and  _386
REMARK  170  A    between atoms: _386  and  _387
REMARK  171  A    between atoms: _389  and  _391
REMARK  172  A    between atoms: _391  and  _392
REMARK  173  A    between atoms: _391  and  _394
REMARK  174  A    between atoms: _394  and  _395
REMARK  175  A    between atoms: _398  and  _400
REMARK  176  A    between atoms: _400  and  _401
REMARK  177  A    between atoms: _400  and  _403
REMARK  178  A    between atoms: _403  and  _404
REMARK  179  A    between atoms: _410  and  _412
REMARK  180  A    between atoms: _412  and  _413
REMARK  181  A    between atoms: _415  and  _417
REMARK  182  A    between atoms: _417  and  _418
REMARK  183  A    between atoms: _417  and  _420
REMARK  184  A    between atoms: _423  and  _425
REMARK  185  A    between atoms: _425  and  _426
REMARK  186  A    between atoms: _428  and  _430
REMARK  187  A    between atoms: _430  and  _431
REMARK  188  A    between atoms: _430  and  _433
REMARK  189  A    between atoms: _433  and  _434
REMARK  190  A    between atoms: _440  and  _442
REMARK  191  A    between atoms: _442  and  _443
REMARK  192  A    between atoms: _442  and  _445
REMARK  193  A    between atoms: _445  and  _446
REMARK  194  A    between atoms: _451  and  _452
REMARK  195  A    between atoms: _454  and  _456
REMARK  196  A    between atoms: _456  and  _457
REMARK  197  A    between atoms: _456  and  _459
REMARK  198  A    between atoms: _459  and  _460
REMARK  199  A    between atoms: _462  and  _464
REMARK  200  A    between atoms: _464  and  _465
REMARK  201  A    between atoms: _468  and  _470
REMARK  202  A    between atoms: _470  and  _471
REMARK  203  A    between atoms: _470  and  _473
REMARK  204  A    between atoms: _473  and  _474
REMARK  205  A    between atoms: _479  and  _480
REMARK  206  A    between atoms: _482  and  _484
REMARK  207  A    between atoms: _484  and  _485
REMARK  208  A    between atoms: _484  and  _487
REMARK  209  A    between atoms: _490  and  _492
REMARK  210  A    between atoms: _492  and  _493
REMARK  211  A    between atoms: _492  and  _495
REMARK  212  A    between atoms: _495  and  _496
REMARK  213  A    between atoms: _499  and  _501
REMARK  214  A    between atoms: _501  and  _502
REMARK  215  A    between atoms: _501  and  _504
REMARK  216  A    between atoms: _507  and  _509
REMARK  217  A    between atoms: _509  and  _510
REMARK  218  A    between atoms: _509  and  _512
REMARK  219  A    between atoms: _512  and  _513
REMARK  220  A    between atoms: _516  and  _518
REMARK  221  A    between atoms: _518  and  _519
REMARK  222  A    between atoms: _518  and  _521
REMARK  223  A    between atoms: _521  and  _522
REMARK  224  A    between atoms: _525  and  _527
REMARK  225  A    between atoms: _527  and  _528
REMARK  226  A    between atoms: _527  and  _530
REMARK  227  A    between atoms: _530  and  _531
REMARK  228  A    between atoms: _531  and  _532
REMARK  229  A    between atoms: _532  and  _533
REMARK  230  A    between atoms: _533  and  _534
REMARK  231  A    between atoms: _538  and  _540
REMARK  232  A    between atoms: _540  and  _541
REMARK  233  A    between atoms: _540  and  _543
REMARK  234  A    between atoms: _543  and  _544
REMARK  235  A    between atoms: _549  and  _551
REMARK  236  A    between atoms: _551  and  _552
REMARK  237  A    between atoms: _555  and  _557
REMARK  238  A    between atoms: _557  and  _558
REMARK  239  A    between atoms: _557  and  _560
REMARK  240  A    between atoms: _560  and  _561
REMARK  241  A    between atoms: _571  and  _573
REMARK  242  A    between atoms: _573  and  _574
REMARK  243  A    between atoms: _573  and  _576
REMARK  244  A    between atoms: _576  and  _577
REMARK  245  A    between atoms: _577  and  _578
REMARK  246  A    between atoms: _581  and  _583
REMARK  247  A    between atoms: _583  and  _584
REMARK  248  A    between atoms: _583  and  _586
REMARK  249  A    between atoms: _586  and  _587
REMARK  250  A    between atoms: _589  and  _591
REMARK  251  A    between atoms: _591  and  _592
REMARK  252  A    between atoms: _591  and  _594
REMARK  253  A    between atoms: _594  and  _595
REMARK  254  A    between atoms: _601  and  _603
REMARK  255  A    between atoms: _603  and  _604
REMARK  256  A    between atoms: _603  and  _606
REMARK  257  A    between atoms: _606  and  _607
REMARK  258  A    between atoms: _610  and  _612
REMARK  259  A    between atoms: _612  and  _613
REMARK  260  A    between atoms: _612  and  _615
REMARK  261  A    between atoms: _618  and  _620
REMARK  262  A    between atoms: _620  and  _621
REMARK  263  A    between atoms: _620  and  _623
REMARK  264  A    between atoms: _623  and  _624
REMARK  265  A    between atoms: _624  and  _625
REMARK  266  A    between atoms: _627  and  _629
REMARK  267  A    between atoms: _629  and  _630
REMARK  268  A    between atoms: _632  and  _634
REMARK  269  A    between atoms: _634  and  _635
REMARK  270  A    between atoms: _634  and  _637
REMARK  271  A    between atoms: _637  and  _638
REMARK  272  A    between atoms: _641  and  _643
REMARK  273  A    between atoms: _643  and  _644
REMARK  274  A    between atoms: _643  and  _646
REMARK  275  A    between atoms: _646  and  _647
REMARK  276  A    between atoms: _647  and  _648
REMARK  277  A    between atoms: _648  and  _649
REMARK  278  A    between atoms: _649  and  _650
REMARK  279  A    between atoms: _654  and  _656
REMARK  280  A    between atoms: _656  and  _657
REMARK  281  A    between atoms: _656  and  _659
REMARK                            x       y       z     vdW  Elec       q    Type
REMARK                         _______ _______ _______ _____ _____    ______ ____
ROOT
ATOM      1  O   HOH     1       3.742   4.639  19.339  0.00  0.00    +0.000 OA
ENDROOT
TORSDOF 0
REMARK  Name = ../refined-set-2016/2yki/2yki_pocket.pdb
REMARK  281 active torsions:
REMARK  status: ('A' for Active; 'I' for Inactive)
REMARK    1  A    between atoms: _1  and  _3
REMARK    2  A    between atoms: _3  and  _4
REMARK    3  A    between atoms: _3  and  _6
REMARK    4  A    between atoms: _6  and  _7
REMARK    5  A    between atoms: _13  and  _15
REMARK    6  A    between atoms: _15  and  _16
REMARK    7  A    between atoms: _19  and  _21
REMARK    8  A    between atoms: _21  and  _22
REMARK    9  A    between atoms: _21  and  _24
REMARK   10  A    between atoms: _24  and  _25
REMARK   11  A    between atoms: _31  and  _33
REMARK   12  A    between atoms: _33  and  _34
REMARK   13  A    between atoms: _33  and  _36
REMARK   14  A    between atoms: _36  and  _37
REMARK   15  A    between atoms: _37  and  _38
REMARK   16  A    between atoms: _43  and  _45
REMARK   17  A    between atoms: _45  and  _46
REMARK   18  A    between atoms: _45  and  _48
REMARK   19  A    between atoms: _48  and  _49
REMARK   20  A    between atoms: _52  and  _54
REMARK   21  A    between atoms: _54  and  _55
REMARK   22  A    between atoms: _58  and  _60
REMARK   23  A    between atoms: _60  and  _61
REMARK   24  A    between atoms: _60  and  _63
REMARK   25  A    between atoms: _63  and  _64
REMARK   26  A    between atoms: _67  and  _69
REMARK   27  A    between atoms: _69  and  _70
REMARK   28  A    between atoms: _69  and  _72
REMARK   29  A    between atoms: _72  and  _73
REMARK   30  A    between atoms: _73  and  _74
REMARK   31  A    between atoms: _76  and  _78
REMARK   32  A    between atoms: _78  and  _79
REMARK   33  A    between atoms: _78  and  _81
REMARK   34  A    between atoms: _81  and  _82
REMARK   35  A    between atoms: _82  and  _83
REMARK   36  A    between atoms: _86  and  _88
REMARK   37  A    between atoms: _88  and  _89
REMARK   38  A    between atoms: _88  and  _91
REMARK   39  A    between atoms: _91  and  _92
REMARK   40  A    between atoms: _95  and  _97
REMARK   41  A    between atoms: _97  and  _98
REMARK   42  A    between atoms: _97  and  _100
REMARK   43  A    between atoms: _100  and  _101
REMARK   44  A    between atoms: _104  and  _106
REMARK   45  A    between atoms: _106  and  _107
REMARK   46  A    between atoms: _106  and  _109
REMARK   47  A    between atoms: _109  and  _110
REMARK   48  A    between atoms: _112  and  _114
REMARK   49  A    between atoms: _114  and  _115
REMARK   50  A    between atoms: _114  and  _117
REMARK   51  A    between atoms: _117  and  _118
REMARK   52  A    between atoms: _123  and  _125
REMARK   53  A    between atoms: _125  and  _126
REMARK   54  A    between atoms: _125  and  _128
REMARK   55  A    between atoms: _128  and  _129
REMARK   56  A    between atoms: _131  and  _133
REMARK   57  A    between atoms: _133  and  _134
REMARK   58  A    between atoms: _133  and  _136
REMARK   59  A    between atoms: _136  and  _137
REMARK   60  A    between atoms: _139  and  _141
REMARK   61  A    between atoms: _141  and  _142
REMARK   62  A    between atoms: _141  and  _144
REMARK   63  A    between atoms: _144  and  _145
REMARK   64  A    between atoms: _148  and  _150
REMARK   65  A    between atoms: _150  and  _151
REMARK   66  A    between atoms: _154  and  _156
REMARK   67  A    between atoms: _156  and  _157
REMARK   68  A    between atoms: _156  and  _159
REMARK   69  A    between atoms: _159  and  _160
REMARK   70  A    between atoms: _163  and  _165
REMARK   71  A    between atoms: _165  and  _166
REMARK   72  A    between atoms: _165  and  _168
REMARK   73  A    between atoms: _168  and  _169
REMARK   74  A    between atoms: _169  and  _170
REMARK   75  A    between atoms: _170  and  _171
REMARK   76  A    between atoms: _171  and  _172
REMARK   77  A    between atoms: _176  and  _178
REMARK   78  A    between atoms: _178  and  _179
REMARK   79  A    between atoms: _178  and  _181
REMARK   80  A    between atoms: _181  and  _182
REMARK   81  A    between atoms: _185  and  _187
REMARK   82  A    between atoms: _187  and  _188
REMARK   83  A    between atoms: _187  and  _190
REMARK   84  A    between atoms: _190  and  _191
REMARK   85  A    between atoms: _194  and  _196
REMARK   86  A    between atoms: _196  and  _197
REMARK   87  A    between atoms: _196  and  _199
REMARK   88  A    between atoms: _202  and  _204
REMARK   89  A    between atoms: _204  and  _205
REMARK   90  A    between atoms: _204  and  _207
REMARK   91  A    between atoms: _207  and  _208
REMARK   92  A    between atoms: _211  and  _213
REMARK   93  A    between atoms: _213  and  _214
REMARK   94  A    between atoms: _213  and  _216
REMARK   95  A    between atoms: _216  and  _217
REMARK   96  A    between atoms: _220  and  _222
REMARK   97  A    between atoms: _222  and  _223
REMARK   98  A    between atoms: _225  and  _227
REMARK   99  A    between atoms: _227  and  _228
REMARK  100  A    between atoms: _227  and  _230
REMARK  101  A    between atoms: _230  and  _231
REMARK  102  A    between atoms: _234  and  _236
REMARK  103  A    between atoms: _236  and  _237
REMARK  104  A    between atoms: _239  and  _241
REMARK  105  A    between atoms: _241  and  _242
REMARK  106  A    between atoms: _241  and  _244
REMARK  107  A    between atoms: _244  and  _245
REMARK  108  A    between atoms: _245  and  _246
REMARK  109  A    between atoms: _248  and  _250
REMARK  110  A    between atoms: _250  and  _251
REMARK  111  A    between atoms: _250  and  _253
REMARK  112  A    between atoms: _253  and  _254
REMARK  113  A    between atoms: _257  and  _259
REMARK  114  A    between atoms: _259  and  _260
REMARK  115  A    between atoms: _259  and  _262
REMARK  116  A    between atoms: _262  and  _263
REMARK  117  A    between atoms: _263  and  _264
REMARK  118  A    between atoms: _264  and  _265
REMARK  119  A    between atoms: _265  and  _266
REMARK  120  A    between atoms: _270  and  _272
REMARK  121  A    between atoms: _272  and  _273
REMARK  122  A    between atoms: _276  and  _278
REMARK  123  A    between atoms: _278  and  _279
REMARK  124  A    between atoms: _278  and  _281
REMARK  125  A    between atoms: _281  and  _282
REMARK  126  A    between atoms: _285  and  _287
REMARK  127  A    between atoms: _287  and  _288
REMARK  128  A    between atoms: _287  and  _290
REMARK  129  A    between atoms: _290  and  _291
REMARK  130  A    between atoms: _294  and  _296
REMARK  131  A    between atoms: _296  and  _297
REMARK  132  A    between atoms: _296  and  _299
REMARK  133  A    between atoms: _299  and  _300
REMARK  134  A    between atoms: _303  and  _305
REMARK  135  A    between atoms: _305  and  _306
REMARK  136  A    between atoms: _305  and  _308
REMARK  137  A    between atoms: _308  and  _309
REMARK  138  A    between atoms: _314  and  _316
REMARK  139  A    between atoms: _316  and  _317
REMARK  140  A    between atoms: _316  and  _319
REMARK  141  A    between atoms: _319  and  _320
REMARK  142  A    between atoms: _325  and  _327
REMARK  143  A    between atoms: _327  and  _328
REMARK  144  A    between atoms: _327  and  _330
REMARK  145  A    between atoms: _330  and  _331
REMARK  146  A    between atoms: _334  and  _336
REMARK  147  A    between atoms: _336  and  _337
REMARK  148  A    between atoms: _339  and  _341
REMARK  149  A    between atoms: _341  and  _342
REMARK  150  A    between atoms: _341  and  _344
REMARK  151  A    between atoms: _344  and  _345
REMARK  152  A    between atoms: _348  and  _350
REMARK  153  A    between atoms: _350  and  _351
REMARK  154  A    between atoms: _350  and  _353
REMARK  155  A    between atoms: _353  and  _354
REMARK  156  A    between atoms: _357  and  _359
REMARK  157  A    between atoms: _359  and  _360
REMARK  158  A    between atoms: _363  and  _365
REMARK  159  A    between atoms: _365  and  _366
REMARK  160  A    between atoms: _365  and  _368
REMARK  161  A    between atoms: _368  and  _369
REMARK  162  A    between atoms: _369  and  _370
REMARK  163  A    between atoms: _370  and  _371
REMARK  164  A    between atoms: _371  and  _372
REMARK  165  A    between atoms: _376  and  _378
REMARK  166  A    between atoms: _378  and  _379
REMARK  167  A    between atoms: _378  and  _381
REMARK  168  A    between atoms: _381  and  _382
REMARK  169  A    between atoms: _384  and  _386
REMARK  170  A    between atoms: _386  and  _387
REMARK  171  A    between atoms: _389  and  _391
REMARK  172  A    between atoms: _391  and  _392
REMARK  173  A    between atoms: _391  and  _394
REMARK  174  A    between atoms: _394  and  _395
REMARK  175  A    between atoms: _398  and  _400
REMARK  176  A    between atoms: _400  and  _401
REMARK  177  A    between atoms: _400  and  _403
REMARK  178  A    between atoms: _403  and  _404
REMARK  179  A    between atoms: _410  and  _412
REMARK  180  A    between atoms: _412  and  _413
REMARK  181  A    between atoms: _415  and  _417
REMARK  182  A    between atoms: _417  and  _418
REMARK  183  A    between atoms: _417  and  _420
REMARK  184  A    between atoms: _423  and  _425
REMARK  185  A    between atoms: _425  and  _426
REMARK  186  A    between atoms: _428  and  _430
REMARK  187  A    between atoms: _430  and  _431
REMARK  188  A    between atoms: _430  and  _433
REMARK  189  A    between atoms: _433  and  _434
REMARK  190  A    between atoms: _440  and  _442
REMARK  191  A    between atoms: _442  and  _443
REMARK  192  A    between atoms: _442  and  _445
REMARK  193  A    between atoms: _445  and  _446
REMARK  194  A    between atoms: _451  and  _452
REMARK  195  A    between atoms: _454  and  _456
REMARK  196  A    between atoms: _456  and  _457
REMARK  197  A    between atoms: _456  and  _459
REMARK  198  A    between atoms: _459  and  _460
REMARK  199  A    between atoms: _462  and  _464
REMARK  200  A    between atoms: _464  and  _465
REMARK  201  A    between atoms: _468  and  _470
REMARK  202  A    between atoms: _470  and  _471
REMARK  203  A    between atoms: _470  and  _473
REMARK  204  A    between atoms: _473  and  _474
REMARK  205  A    between atoms: _479  and  _480
REMARK  206  A    between atoms: _482  and  _484
REMARK  207  A    between atoms: _484  and  _485
REMARK  208  A    between atoms: _484  and  _487
REMARK  209  A    between atoms: _490  and  _492
REMARK  210  A    between atoms: _492  and  _493
REMARK  211  A    between atoms: _492  and  _495
REMARK  212  A    between atoms: _495  and  _496
REMARK  213  A    between atoms: _499  and  _501
REMARK  214  A    between atoms: _501  and  _502
REMARK  215  A    between atoms: _501  and  _504
REMARK  216  A    between atoms: _507  and  _509
REMARK  217  A    between atoms: _509  and  _510
REMARK  218  A    between atoms: _509  and  _512
REMARK  219  A    between atoms: _512  and  _513
REMARK  220  A    between atoms: _516  and  _518
REMARK  221  A    between atoms: _518  and  _519
REMARK  222  A    between atoms: _518  and  _521
REMARK  223  A    between atoms: _521  and  _522
REMARK  224  A    between atoms: _525  and  _527
REMARK  225  A    between atoms: _527  and  _528
REMARK  226  A    between atoms: _527  and  _530
REMARK  227  A    between atoms: _530  and  _531
REMARK  228  A    between atoms: _531  and  _532
REMARK  229  A    between atoms: _532  and  _533
REMARK  230  A    between atoms: _533  and  _534
REMARK  231  A    between atoms: _538  and  _540
REMARK  232  A    between atoms: _540  and  _541
REMARK  233  A    between atoms: _540  and  _543
REMARK  234  A    between atoms: _543  and  _544
REMARK  235  A    between atoms: _549  and  _551
REMARK  236  A    between atoms: _551  and  _552
REMARK  237  A    between atoms: _555  and  _557
REMARK  238  A    between atoms: _557  and  _558
REMARK  239  A    between atoms: _557  and  _560
REMARK  240  A    between atoms: _560  and  _561
REMARK  241  A    between atoms: _571  and  _573
REMARK  242  A    between atoms: _573  and  _574
REMARK  243  A    between atoms: _573  and  _576
REMARK  244  A    between atoms: _576  and  _577
REMARK  245  A    between atoms: _577  and  _578
REMARK  246  A    between atoms: _581  and  _583
REMARK  247  A    between atoms: _583  and  _584
REMARK  248  A    between atoms: _583  and  _586
REMARK  249  A    between atoms: _586  and  _587
REMARK  250  A    between atoms: _589  and  _591
REMARK  251  A    between atoms: _591  and  _592
REMARK  252  A    between atoms: _591  and  _594
REMARK  253  A    between atoms: _594  and  _595
REMARK  254  A    between atoms: _601  and  _603
REMARK  255  A    between atoms: _603  and  _604
REMARK  256  A    between atoms: _603  and  _606
REMARK  257  A    between atoms: _606  and  _607
REMARK  258  A    between atoms: _610  and  _612
REMARK  259  A    between atoms: _612  and  _613
REMARK  260  A    between atoms: _612  and  _615
REMARK  261  A    between atoms: _618  and  _620
REMARK  262  A    between atoms: _620  and  _621
REMARK  263  A    between atoms: _620  and  _623
REMARK  264  A    between atoms: _623  and  _624
REMARK  265  A    between atoms: _624  and  _625
REMARK  266  A    between atoms: _627  and  _629
REMARK  267  A    between atoms: _629  and  _630
REMARK  268  A    between atoms: _632  and  _634
REMARK  269  A    between atoms: _634  and  _635
REMARK  270  A    between atoms: _634  and  _637
REMARK  271  A    between atoms: _637  and  _638
REMARK  272  A    between atoms: _641  and  _643
REMARK  273  A    between atoms: _643  and  _644
REMARK  274  A    between atoms: _643  and  _646
REMARK  275  A    between atoms: _646  and  _647
REMARK  276  A    between atoms: _647  and  _648
REMARK  277  A    between atoms: _648  and  _649
REMARK  278  A    between atoms: _649  and  _650
REMARK  279  A    between atoms: _654  and  _656
REMARK  280  A    between atoms: _656  and  _657
REMARK  281  A    between atoms: _656  and  _659
REMARK                            x       y       z     vdW  Elec       q    Type
REMARK                         _______ _______ _______ _____ _____    ______ ____
ROOT
ATOM      1  O   HOH     1       4.660   6.811  18.443  0.00  0.00    +0.000 OA
ENDROOT
TORSDOF 0
REMARK  Name = ../refined-set-2016/2yki/2yki_pocket.pdb
REMARK  281 active torsions:
REMARK  status: ('A' for Active; 'I' for Inactive)
REMARK    1  A    between atoms: _1  and  _3
REMARK    2  A    between atoms: _3  and  _4
REMARK    3  A    between atoms: _3  and  _6
REMARK    4  A    between atoms: _6  and  _7
REMARK    5  A    between atoms: _13  and  _15
REMARK    6  A    between atoms: _15  and  _16
REMARK    7  A    between atoms: _19  and  _21
REMARK    8  A    between atoms: _21  and  _22
REMARK    9  A    between atoms: _21  and  _24
REMARK   10  A    between atoms: _24  and  _25
REMARK   11  A    between atoms: _31  and  _33
REMARK   12  A    between atoms: _33  and  _34
REMARK   13  A    between atoms: _33  and  _36
REMARK   14  A    between atoms: _36  and  _37
REMARK   15  A    between atoms: _37  and  _38
REMARK   16  A    between atoms: _43  and  _45
REMARK   17  A    between atoms: _45  and  _46
REMARK   18  A    between atoms: _45  and  _48
REMARK   19  A    between atoms: _48  and  _49
REMARK   20  A    between atoms: _52  and  _54
REMARK   21  A    between atoms: _54  and  _55
REMARK   22  A    between atoms: _58  and  _60
REMARK   23  A    between atoms: _60  and  _61
REMARK   24  A    between atoms: _60  and  _63
REMARK   25  A    between atoms: _63  and  _64
REMARK   26  A    between atoms: _67  and  _69
REMARK   27  A    between atoms: _69  and  _70
REMARK   28  A    between atoms: _69  and  _72
REMARK   29  A    between atoms: _72  and  _73
REMARK   30  A    between atoms: _73  and  _74
REMARK   31  A    between atoms: _76  and  _78
REMARK   32  A    between atoms: _78  and  _79
REMARK   33  A    between atoms: _78  and  _81
REMARK   34  A    between atoms: _81  and  _82
REMARK   35  A    between atoms: _82  and  _83
REMARK   36  A    between atoms: _86  and  _88
REMARK   37  A    between atoms: _88  and  _89
REMARK   38  A    between atoms: _88  and  _91
REMARK   39  A    between atoms: _91  and  _92
REMARK   40  A    between atoms: _95  and  _97
REMARK   41  A    between atoms: _97  and  _98
REMARK   42  A    between atoms: _97  and  _100
REMARK   43  A    between atoms: _100  and  _101
REMARK   44  A    between atoms: _104  and  _106
REMARK   45  A    between atoms: _106  and  _107
REMARK   46  A    between atoms: _106  and  _109
REMARK   47  A    between atoms: _109  and  _110
REMARK   48  A    between atoms: _112  and  _114
REMARK   49  A    between atoms: _114  and  _115
REMARK   50  A    between atoms: _114  and  _117
REMARK   51  A    between atoms: _117  and  _118
REMARK   52  A    between atoms: _123  and  _125
REMARK   53  A    between atoms: _125  and  _126
REMARK   54  A    between atoms: _125  and  _128
REMARK   55  A    between atoms: _128  and  _129
REMARK   56  A    between atoms: _131  and  _133
REMARK   57  A    between atoms: _133  and  _134
REMARK   58  A    between atoms: _133  and  _136
REMARK   59  A    between atoms: _136  and  _137
REMARK   60  A    between atoms: _139  and  _141
REMARK   61  A    between atoms: _141  and  _142
REMARK   62  A    between atoms: _141  and  _144
REMARK   63  A    between atoms: _144  and  _145
REMARK   64  A    between atoms: _148  and  _150
REMARK   65  A    between atoms: _150  and  _151
REMARK   66  A    between atoms: _154  and  _156
REMARK   67  A    between atoms: _156  and  _157
REMARK   68  A    between atoms: _156  and  _159
REMARK   69  A    between atoms: _159  and  _160
REMARK   70  A    between atoms: _163  and  _165
REMARK   71  A    between atoms: _165  and  _166
REMARK   72  A    between atoms: _165  and  _168
REMARK   73  A    between atoms: _168  and  _169
REMARK   74  A    between atoms: _169  and  _170
REMARK   75  A    between atoms: _170  and  _171
REMARK   76  A    between atoms: _171  and  _172
REMARK   77  A    between atoms: _176  and  _178
REMARK   78  A    between atoms: _178  and  _179
REMARK   79  A    between atoms: _178  and  _181
REMARK   80  A    between atoms: _181  and  _182
REMARK   81  A    between atoms: _185  and  _187
REMARK   82  A    between atoms: _187  and  _188
REMARK   83  A    between atoms: _187  and  _190
REMARK   84  A    between atoms: _190  and  _191
REMARK   85  A    between atoms: _194  and  _196
REMARK   86  A    between atoms: _196  and  _197
REMARK   87  A    between atoms: _196  and  _199
REMARK   88  A    between atoms: _202  and  _204
REMARK   89  A    between atoms: _204  and  _205
REMARK   90  A    between atoms: _204  and  _207
REMARK   91  A    between atoms: _207  and  _208
REMARK   92  A    between atoms: _211  and  _213
REMARK   93  A    between atoms: _213  and  _214
REMARK   94  A    between atoms: _213  and  _216
REMARK   95  A    between atoms: _216  and  _217
REMARK   96  A    between atoms: _220  and  _222
REMARK   97  A    between atoms: _222  and  _223
REMARK   98  A    between atoms: _225  and  _227
REMARK   99  A    between atoms: _227  and  _228
REMARK  100  A    between atoms: _227  and  _230
REMARK  101  A    between atoms: _230  and  _231
REMARK  102  A    between atoms: _234  and  _236
REMARK  103  A    between atoms: _236  and  _237
REMARK  104  A    between atoms: _239  and  _241
REMARK  105  A    between atoms: _241  and  _242
REMARK  106  A    between atoms: _241  and  _244
REMARK  107  A    between atoms: _244  and  _245
REMARK  108  A    between atoms: _245  and  _246
REMARK  109  A    between atoms: _248  and  _250
REMARK  110  A    between atoms: _250  and  _251
REMARK  111  A    between atoms: _250  and  _253
REMARK  112  A    between atoms: _253  and  _254
REMARK  113  A    between atoms: _257  and  _259
REMARK  114  A    between atoms: _259  and  _260
REMARK  115  A    between atoms: _259  and  _262
REMARK  116  A    between atoms: _262  and  _263
REMARK  117  A    between atoms: _263  and  _264
REMARK  118  A    between atoms: _264  and  _265
REMARK  119  A    between atoms: _265  and  _266
REMARK  120  A    between atoms: _270  and  _272
REMARK  121  A    between atoms: _272  and  _273
REMARK  122  A    between atoms: _276  and  _278
REMARK  123  A    between atoms: _278  and  _279
REMARK  124  A    between atoms: _278  and  _281
REMARK  125  A    between atoms: _281  and  _282
REMARK  126  A    between atoms: _285  and  _287
REMARK  127  A    between atoms: _287  and  _288
REMARK  128  A    between atoms: _287  and  _290
REMARK  129  A    between atoms: _290  and  _291
REMARK  130  A    between atoms: _294  and  _296
REMARK  131  A    between atoms: _296  and  _297
REMARK  132  A    between atoms: _296  and  _299
REMARK  133  A    between atoms: _299  and  _300
REMARK  134  A    between atoms: _303  and  _305
REMARK  135  A    between atoms: _305  and  _306
REMARK  136  A    between atoms: _305  and  _308
REMARK  137  A    between atoms: _308  and  _309
REMARK  138  A    between atoms: _314  and  _316
REMARK  139  A    between atoms: _316  and  _317
REMARK  140  A    between atoms: _316  and  _319
REMARK  141  A    between atoms: _319  and  _320
REMARK  142  A    between atoms: _325  and  _327
REMARK  143  A    between atoms: _327  and  _328
REMARK  144  A    between atoms: _327  and  _330
REMARK  145  A    between atoms: _330  and  _331
REMARK  146  A    between atoms: _334  and  _336
REMARK  147  A    between atoms: _336  and  _337
REMARK  148  A    between atoms: _339  and  _341
REMARK  149  A    between atoms: _341  and  _342
REMARK  150  A    between atoms: _341  and  _344
REMARK  151  A    between atoms: _344  and  _345
REMARK  152  A    between atoms: _348  and  _350
REMARK  153  A    between atoms: _350  and  _351
REMARK  154  A    between atoms: _350  and  _353
REMARK  155  A    between atoms: _353  and  _354
REMARK  156  A    between atoms: _357  and  _359
REMARK  157  A    between atoms: _359  and  _360
REMARK  158  A    between atoms: _363  and  _365
REMARK  159  A    between atoms: _365  and  _366
REMARK  160  A    between atoms: _365  and  _368
REMARK  161  A    between atoms: _368  and  _369
REMARK  162  A    between atoms: _369  and  _370
REMARK  163  A    between atoms: _370  and  _371
REMARK  164  A    between atoms: _371  and  _372
REMARK  165  A    between atoms: _376  and  _378
REMARK  166  A    between atoms: _378  and  _379
REMARK  167  A    between atoms: _378  and  _381
REMARK  168  A    between atoms: _381  and  _382
REMARK  169  A    between atoms: _384  and  _386
REMARK  170  A    between atoms: _386  and  _387
REMARK  171  A    between atoms: _389  and  _391
REMARK  172  A    between atoms: _391  and  _392
REMARK  173  A    between atoms: _391  and  _394
REMARK  174  A    between atoms: _394  and  _395
REMARK  175  A    between atoms: _398  and  _400
REMARK  176  A    between atoms: _400  and  _401
REMARK  177  A    between atoms: _400  and  _403
REMARK  178  A    between atoms: _403  and  _404
REMARK  179  A    between atoms: _410  and  _412
REMARK  180  A    between atoms: _412  and  _413
REMARK  181  A    between atoms: _415  and  _417
REMARK  182  A    between atoms: _417  and  _418
REMARK  183  A    between atoms: _417  and  _420
REMARK  184  A    between atoms: _423  and  _425
REMARK  185  A    between atoms: _425  and  _426
REMARK  186  A    between atoms: _428  and  _430
REMARK  187  A    between atoms: _430  and  _431
REMARK  188  A    between atoms: _430  and  _433
REMARK  189  A    between atoms: _433  and  _434
REMARK  190  A    between atoms: _440  and  _442
REMARK  191  A    between atoms: _442  and  _443
REMARK  192  A    between atoms: _442  and  _445
REMARK  193  A    between atoms: _445  and  _446
REMARK  194  A    between atoms: _451  and  _452
REMARK  195  A    between atoms: _454  and  _456
REMARK  196  A    between atoms: _456  and  _457
REMARK  197  A    between atoms: _456  and  _459
REMARK  198  A    between atoms: _459  and  _460
REMARK  199  A    between atoms: _462  and  _464
REMARK  200  A    between atoms: _464  and  _465
REMARK  201  A    between atoms: _468  and  _470
REMARK  202  A    between atoms: _470  and  _471
REMARK  203  A    between atoms: _470  and  _473
REMARK  204  A    between atoms: _473  and  _474
REMARK  205  A    between atoms: _479  and  _480
REMARK  206  A    between atoms: _482  and  _484
REMARK  207  A    between atoms: _484  and  _485
REMARK  208  A    between atoms: _484  and  _487
REMARK  209  A    between atoms: _490  and  _492
REMARK  210  A    between atoms: _492  and  _493
REMARK  211  A    between atoms: _492  and  _495
REMARK  212  A    between atoms: _495  and  _496
REMARK  213  A    between atoms: _499  and  _501
REMARK  214  A    between atoms: _501  and  _502
REMARK  215  A    between atoms: _501  and  _504
REMARK  216  A    between atoms: _507  and  _509
REMARK  217  A    between atoms: _509  and  _510
REMARK  218  A    between atoms: _509  and  _512
REMARK  219  A    between atoms: _512  and  _513
REMARK  220  A    between atoms: _516  and  _518
REMARK  221  A    between atoms: _518  and  _519
REMARK  222  A    between atoms: _518  and  _521
REMARK  223  A    between atoms: _521  and  _522
REMARK  224  A    between atoms: _525  and  _527
REMARK  225  A    between atoms: _527  and  _528
REMARK  226  A    between atoms: _527  and  _530
REMARK  227  A    between atoms: _530  and  _531
REMARK  228  A    between atoms: _531  and  _532
REMARK  229  A    between atoms: _532  and  _533
REMARK  230  A    between atoms: _533  and  _534
REMARK  231  A    between atoms: _538  and  _540
REMARK  232  A    between atoms: _540  and  _541
REMARK  233  A    between atoms: _540  and  _543
REMARK  234  A    between atoms: _543  and  _544
REMARK  235  A    between atoms: _549  and  _551
REMARK  236  A    between atoms: _551  and  _552
REMARK  237  A    between atoms: _555  and  _557
REMARK  238  A    between atoms: _557  and  _558
REMARK  239  A    between atoms: _557  and  _560
REMARK  240  A    between atoms: _560  and  _561
REMARK  241  A    between atoms: _571  and  _573
REMARK  242  A    between atoms: _573  and  _574
REMARK  243  A    between atoms: _573  and  _576
REMARK  244  A    between atoms: _576  and  _577
REMARK  245  A    between atoms: _577  and  _578
REMARK  246  A    between atoms: _581  and  _583
REMARK  247  A    between atoms: _583  and  _584
REMARK  248  A    between atoms: _583  and  _586
REMARK  249  A    between atoms: _586  and  _587
REMARK  250  A    between atoms: _589  and  _591
REMARK  251  A    between atoms: _591  and  _592
REMARK  252  A    between atoms: _591  and  _594
REMARK  253  A    between atoms: _594  and  _595
REMARK  254  A    between atoms: _601  and  _603
REMARK  255  A    between atoms: _603  and  _604
REMARK  256  A    between atoms: _603  and  _606
REMARK  257  A    between atoms: _606  and  _607
REMARK  258  A    between atoms: _610  and  _612
REMARK  259  A    between atoms: _612  and  _613
REMARK  260  A    between atoms: _612  and  _615
REMARK  261  A    between atoms: _618  and  _620
REMARK  262  A    between atoms: _620  and  _621
REMARK  263  A    between atoms: _620  and  _623
REMARK  264  A    between atoms: _623  and  _624
REMARK  265  A    between atoms: _624  and  _625
REMARK  266  A    between atoms: _627  and  _629
REMARK  267  A    between atoms: _629  and  _630
REMARK  268  A    between atoms: _632  and  _634
REMARK  269  A    between atoms: _634  and  _635
REMARK  270  A    between atoms: _634  and  _637
REMARK  271  A    between atoms: _637  and  _638
REMARK  272  A    between atoms: _641  and  _643
REMARK  273  A    between atoms: _643  and  _644
REMARK  274  A    between atoms: _643  and  _646
REMARK  275  A    between atoms: _646  and  _647
REMARK  276  A    between atoms: _647  and  _648
REMARK  277  A    between atoms: _648  and  _649
REMARK  278  A    between atoms: _649  and  _650
REMARK  279  A    between atoms: _654  and  _656
REMARK  280  A    between atoms: _656  and  _657
REMARK  281  A    between atoms: _656  and  _659
REMARK                            x       y       z     vdW  Elec       q    Type
REMARK                         _______ _______ _______ _____ _____    ______ ____
ROOT
ATOM      1  O   HOH     1       5.936   5.878  22.807  0.00  0.00    +0.000 OA
ENDROOT
TORSDOF 0
REMARK  Name = ../refined-set-2016/2yki/2yki_pocket.pdb
REMARK  281 active torsions:
REMARK  status: ('A' for Active; 'I' for Inactive)
REMARK    1  A    between atoms: _1  and  _3
REMARK    2  A    between atoms: _3  and  _4
REMARK    3  A    between atoms: _3  and  _6
REMARK    4  A    between atoms: _6  and  _7
REMARK    5  A    between atoms: _13  and  _15
REMARK    6  A    between atoms: _15  and  _16
REMARK    7  A    between atoms: _19  and  _21
REMARK    8  A    between atoms: _21  and  _22
REMARK    9  A    between atoms: _21  and  _24
REMARK   10  A    between atoms: _24  and  _25
REMARK   11  A    between atoms: _31  and  _33
REMARK   12  A    between atoms: _33  and  _34
REMARK   13  A    between atoms: _33  and  _36
REMARK   14  A    between atoms: _36  and  _37
REMARK   15  A    between atoms: _37  and  _38
REMARK   16  A    between atoms: _43  and  _45
REMARK   17  A    between atoms: _45  and  _46
REMARK   18  A    between atoms: _45  and  _48
REMARK   19  A    between atoms: _48  and  _49
REMARK   20  A    between atoms: _52  and  _54
REMARK   21  A    between atoms: _54  and  _55
REMARK   22  A    between atoms: _58  and  _60
REMARK   23  A    between atoms: _60  and  _61
REMARK   24  A    between atoms: _60  and  _63
REMARK   25  A    between atoms: _63  and  _64
REMARK   26  A    between atoms: _67  and  _69
REMARK   27  A    between atoms: _69  and  _70
REMARK   28  A    between atoms: _69  and  _72
REMARK   29  A    between atoms: _72  and  _73
REMARK   30  A    between atoms: _73  and  _74
REMARK   31  A    between atoms: _76  and  _78
REMARK   32  A    between atoms: _78  and  _79
REMARK   33  A    between atoms: _78  and  _81
REMARK   34  A    between atoms: _81  and  _82
REMARK   35  A    between atoms: _82  and  _83
REMARK   36  A    between atoms: _86  and  _88
REMARK   37  A    between atoms: _88  and  _89
REMARK   38  A    between atoms: _88  and  _91
REMARK   39  A    between atoms: _91  and  _92
REMARK   40  A    between atoms: _95  and  _97
REMARK   41  A    between atoms: _97  and  _98
REMARK   42  A    between atoms: _97  and  _100
REMARK   43  A    between atoms: _100  and  _101
REMARK   44  A    between atoms: _104  and  _106
REMARK   45  A    between atoms: _106  and  _107
REMARK   46  A    between atoms: _106  and  _109
REMARK   47  A    between atoms: _109  and  _110
REMARK   48  A    between atoms: _112  and  _114
REMARK   49  A    between atoms: _114  and  _115
REMARK   50  A    between atoms: _114  and  _117
REMARK   51  A    between atoms: _117  and  _118
REMARK   52  A    between atoms: _123  and  _125
REMARK   53  A    between atoms: _125  and  _126
REMARK   54  A    between atoms: _125  and  _128
REMARK   55  A    between atoms: _128  and  _129
REMARK   56  A    between atoms: _131  and  _133
REMARK   57  A    between atoms: _133  and  _134
REMARK   58  A    between atoms: _133  and  _136
REMARK   59  A    between atoms: _136  and  _137
REMARK   60  A    between atoms: _139  and  _141
REMARK   61  A    between atoms: _141  and  _142
REMARK   62  A    between atoms: _141  and  _144
REMARK   63  A    between atoms: _144  and  _145
REMARK   64  A    between atoms: _148  and  _150
REMARK   65  A    between atoms: _150  and  _151
REMARK   66  A    between atoms: _154  and  _156
REMARK   67  A    between atoms: _156  and  _157
REMARK   68  A    between atoms: _156  and  _159
REMARK   69  A    between atoms: _159  and  _160
REMARK   70  A    between atoms: _163  and  _165
REMARK   71  A    between atoms: _165  and  _166
REMARK   72  A    between atoms: _165  and  _168
REMARK   73  A    between atoms: _168  and  _169
REMARK   74  A    between atoms: _169  and  _170
REMARK   75  A    between atoms: _170  and  _171
REMARK   76  A    between atoms: _171  and  _172
REMARK   77  A    between atoms: _176  and  _178
REMARK   78  A    between atoms: _178  and  _179
REMARK   79  A    between atoms: _178  and  _181
REMARK   80  A    between atoms: _181  and  _182
REMARK   81  A    between atoms: _185  and  _187
REMARK   82  A    between atoms: _187  and  _188
REMARK   83  A    between atoms: _187  and  _190
REMARK   84  A    between atoms: _190  and  _191
REMARK   85  A    between atoms: _194  and  _196
REMARK   86  A    between atoms: _196  and  _197
REMARK   87  A    between atoms: _196  and  _199
REMARK   88  A    between atoms: _202  and  _204
REMARK   89  A    between atoms: _204  and  _205
REMARK   90  A    between atoms: _204  and  _207
REMARK   91  A    between atoms: _207  and  _208
REMARK   92  A    between atoms: _211  and  _213
REMARK   93  A    between atoms: _213  and  _214
REMARK   94  A    between atoms: _213  and  _216
REMARK   95  A    between atoms: _216  and  _217
REMARK   96  A    between atoms: _220  and  _222
REMARK   97  A    between atoms: _222  and  _223
REMARK   98  A    between atoms: _225  and  _227
REMARK   99  A    between atoms: _227  and  _228
REMARK  100  A    between atoms: _227  and  _230
REMARK  101  A    between atoms: _230  and  _231
REMARK  102  A    between atoms: _234  and  _236
REMARK  103  A    between atoms: _236  and  _237
REMARK  104  A    between atoms: _239  and  _241
REMARK  105  A    between atoms: _241  and  _242
REMARK  106  A    between atoms: _241  and  _244
REMARK  107  A    between atoms: _244  and  _245
REMARK  108  A    between atoms: _245  and  _246
REMARK  109  A    between atoms: _248  and  _250
REMARK  110  A    between atoms: _250  and  _251
REMARK  111  A    between atoms: _250  and  _253
REMARK  112  A    between atoms: _253  and  _254
REMARK  113  A    between atoms: _257  and  _259
REMARK  114  A    between atoms: _259  and  _260
REMARK  115  A    between atoms: _259  and  _262
REMARK  116  A    between atoms: _262  and  _263
REMARK  117  A    between atoms: _263  and  _264
REMARK  118  A    between atoms: _264  and  _265
REMARK  119  A    between atoms: _265  and  _266
REMARK  120  A    between atoms: _270  and  _272
REMARK  121  A    between atoms: _272  and  _273
REMARK  122  A    between atoms: _276  and  _278
REMARK  123  A    between atoms: _278  and  _279
REMARK  124  A    between atoms: _278  and  _281
REMARK  125  A    between atoms: _281  and  _282
REMARK  126  A    between atoms: _285  and  _287
REMARK  127  A    between atoms: _287  and  _288
REMARK  128  A    between atoms: _287  and  _290
REMARK  129  A    between atoms: _290  and  _291
REMARK  130  A    between atoms: _294  and  _296
REMARK  131  A    between atoms: _296  and  _297
REMARK  132  A    between atoms: _296  and  _299
REMARK  133  A    between atoms: _299  and  _300
REMARK  134  A    between atoms: _303  and  _305
REMARK  135  A    between atoms: _305  and  _306
REMARK  136  A    between atoms: _305  and  _308
REMARK  137  A    between atoms: _308  and  _309
REMARK  138  A    between atoms: _314  and  _316
REMARK  139  A    between atoms: _316  and  _317
REMARK  140  A    between atoms: _316  and  _319
REMARK  141  A    between atoms: _319  and  _320
REMARK  142  A    between atoms: _325  and  _327
REMARK  143  A    between atoms: _327  and  _328
REMARK  144  A    between atoms: _327  and  _330
REMARK  145  A    between atoms: _330  and  _331
REMARK  146  A    between atoms: _334  and  _336
REMARK  147  A    between atoms: _336  and  _337
REMARK  148  A    between atoms: _339  and  _341
REMARK  149  A    between atoms: _341  and  _342
REMARK  150  A    between atoms: _341  and  _344
REMARK  151  A    between atoms: _344  and  _345
REMARK  152  A    between atoms: _348  and  _350
REMARK  153  A    between atoms: _350  and  _351
REMARK  154  A    between atoms: _350  and  _353
REMARK  155  A    between atoms: _353  and  _354
REMARK  156  A    between atoms: _357  and  _359
REMARK  157  A    between atoms: _359  and  _360
REMARK  158  A    between atoms: _363  and  _365
REMARK  159  A    between atoms: _365  and  _366
REMARK  160  A    between atoms: _365  and  _368
REMARK  161  A    between atoms: _368  and  _369
REMARK  162  A    between atoms: _369  and  _370
REMARK  163  A    between atoms: _370  and  _371
REMARK  164  A    between atoms: _371  and  _372
REMARK  165  A    between atoms: _376  and  _378
REMARK  166  A    between atoms: _378  and  _379
REMARK  167  A    between atoms: _378  and  _381
REMARK  168  A    between atoms: _381  and  _382
REMARK  169  A    between atoms: _384  and  _386
REMARK  170  A    between atoms: _386  and  _387
REMARK  171  A    between atoms: _389  and  _391
REMARK  172  A    between atoms: _391  and  _392
REMARK  173  A    between atoms: _391  and  _394
REMARK  174  A    between atoms: _394  and  _395
REMARK  175  A    between atoms: _398  and  _400
REMARK  176  A    between atoms: _400  and  _401
REMARK  177  A    between atoms: _400  and  _403
REMARK  178  A    between atoms: _403  and  _404
REMARK  179  A    between atoms: _410  and  _412
REMARK  180  A    between atoms: _412  and  _413
REMARK  181  A    between atoms: _415  and  _417
REMARK  182  A    between atoms: _417  and  _418
REMARK  183  A    between atoms: _417  and  _420
REMARK  184  A    between atoms: _423  and  _425
REMARK  185  A    between atoms: _425  and  _426
REMARK  186  A    between atoms: _428  and  _430
REMARK  187  A    between atoms: _430  and  _431
REMARK  188  A    between atoms: _430  and  _433
REMARK  189  A    between atoms: _433  and  _434
REMARK  190  A    between atoms: _440  and  _442
REMARK  191  A    between atoms: _442  and  _443
REMARK  192  A    between atoms: _442  and  _445
REMARK  193  A    between atoms: _445  and  _446
REMARK  194  A    between atoms: _451  and  _452
REMARK  195  A    between atoms: _454  and  _456
REMARK  196  A    between atoms: _456  and  _457
REMARK  197  A    between atoms: _456  and  _459
REMARK  198  A    between atoms: _459  and  _460
REMARK  199  A    between atoms: _462  and  _464
REMARK  200  A    between atoms: _464  and  _465
REMARK  201  A    between atoms: _468  and  _470
REMARK  202  A    between atoms: _470  and  _471
REMARK  203  A    between atoms: _470  and  _473
REMARK  204  A    between atoms: _473  and  _474
REMARK  205  A    between atoms: _479  and  _480
REMARK  206  A    between atoms: _482  and  _484
REMARK  207  A    between atoms: _484  and  _485
REMARK  208  A    between atoms: _484  and  _487
REMARK  209  A    between atoms: _490  and  _492
REMARK  210  A    between atoms: _492  and  _493
REMARK  211  A    between atoms: _492  and  _495
REMARK  212  A    between atoms: _495  and  _496
REMARK  213  A    between atoms: _499  and  _501
REMARK  214  A    between atoms: _501  and  _502
REMARK  215  A    between atoms: _501  and  _504
REMARK  216  A    between atoms: _507  and  _509
REMARK  217  A    between atoms: _509  and  _510
REMARK  218  A    between atoms: _509  and  _512
REMARK  219  A    between atoms: _512  and  _513
REMARK  220  A    between atoms: _516  and  _518
REMARK  221  A    between atoms: _518  and  _519
REMARK  222  A    between atoms: _518  and  _521
REMARK  223  A    between atoms: _521  and  _522
REMARK  224  A    between atoms: _525  and  _527
REMARK  225  A    between atoms: _527  and  _528
REMARK  226  A    between atoms: _527  and  _530
REMARK  227  A    between atoms: _530  and  _531
REMARK  228  A    between atoms: _531  and  _532
REMARK  229  A    between atoms: _532  and  _533
REMARK  230  A    between atoms: _533  and  _534
REMARK  231  A    between atoms: _538  and  _540
REMARK  232  A    between atoms: _540  and  _541
REMARK  233  A    between atoms: _540  and  _543
REMARK  234  A    between atoms: _543  and  _544
REMARK  235  A    between atoms: _549  and  _551
REMARK  236  A    between atoms: _551  and  _552
REMARK  237  A    between atoms: _555  and  _557
REMARK  238  A    between atoms: _557  and  _558
REMARK  239  A    between atoms: _557  and  _560
REMARK  240  A    between atoms: _560  and  _561
REMARK  241  A    between atoms: _571  and  _573
REMARK  242  A    between atoms: _573  and  _574
REMARK  243  A    between atoms: _573  and  _576
REMARK  244  A    between atoms: _576  and  _577
REMARK  245  A    between atoms: _577  and  _578
REMARK  246  A    between atoms: _581  and  _583
REMARK  247  A    between atoms: _583  and  _584
REMARK  248  A    between atoms: _583  and  _586
REMARK  249  A    between atoms: _586  and  _587
REMARK  250  A    between atoms: _589  and  _591
REMARK  251  A    between atoms: _591  and  _592
REMARK  252  A    between atoms: _591  and  _594
REMARK  253  A    between atoms: _594  and  _595
REMARK  254  A    between atoms: _601  and  _603
REMARK  255  A    between atoms: _603  and  _604
REMARK  256  A    between atoms: _603  and  _606
REMARK  257  A    between atoms: _606  and  _607
REMARK  258  A    between atoms: _610  and  _612
REMARK  259  A    between atoms: _612  and  _613
REMARK  260  A    between atoms: _612  and  _615
REMARK  261  A    between atoms: _618  and  _620
REMARK  262  A    between atoms: _620  and  _621
REMARK  263  A    between atoms: _620  and  _623
REMARK  264  A    between atoms: _623  and  _624
REMARK  265  A    between atoms: _624  and  _625
REMARK  266  A    between atoms: _627  and  _629
REMARK  267  A    between atoms: _629  and  _630
REMARK  268  A    between atoms: _632  and  _634
REMARK  269  A    between atoms: _634  and  _635
REMARK  270  A    between atoms: _634  and  _637
REMARK  271  A    between atoms: _637  and  _638
REMARK  272  A    between atoms: _641  and  _643
REMARK  273  A    between atoms: _643  and  _644
REMARK  274  A    between atoms: _643  and  _646
REMARK  275  A    between atoms: _646  and  _647
REMARK  276  A    between atoms: _647  and  _648
REMARK  277  A    between atoms: _648  and  _649
REMARK  278  A    between atoms: _649  and  _650
REMARK  279  A    between atoms: _654  and  _656
REMARK  280  A    between atoms: _656  and  _657
REMARK  281  A    between atoms: _656  and  _659
REMARK                            x       y       z     vdW  Elec       q    Type
REMARK                         _______ _______ _______ _____ _____    ______ ____
ROOT
ATOM      1  O   HOH     1       2.988   8.275  24.054  0.00  0.00    +0.000 OA
ENDROOT
TORSDOF 0
