REMARK  Name = ../refined-set-2016/3jzg/3jzg_pocket.pdb
REMARK  133 active torsions:
REMARK  status: ('A' for Active; 'I' for Inactive)
REMARK    1  A    between atoms: _2  and  _3
REMARK    2  A    between atoms: _8  and  _10
REMARK    3  A    between atoms: _10  and  _11
REMARK    4  A    between atoms: _10  and  _13
REMARK    5  A    between atoms: _13  and  _14
REMARK    6  A    between atoms: _20  and  _22
REMARK    7  A    between atoms: _22  and  _23
REMARK    8  A    between atoms: _25  and  _27
REMARK    9  A    between atoms: _27  and  _28
REMARK   10  A    between atoms: _27  and  _30
REMARK   11  A    between atoms: _30  and  _31
REMARK   12  A    between atoms: _36  and  _38
REMARK   13  A    between atoms: _38  and  _39
REMARK   14  A    between atoms: _38  and  _41
REMARK   15  A    between atoms: _41  and  _42
REMARK   16  A    between atoms: _48  and  _50
REMARK   17  A    between atoms: _50  and  _51
REMARK   18  A    between atoms: _50  and  _53
REMARK   19  A    between atoms: _53  and  _54
REMARK   20  A    between atoms: _59  and  _60
REMARK   21  A    between atoms: _62  and  _64
REMARK   22  A    between atoms: _64  and  _65
REMARK   23  A    between atoms: _64  and  _67
REMARK   24  A    between atoms: _67  and  _68
REMARK   25  A    between atoms: _71  and  _73
REMARK   26  A    between atoms: _73  and  _74
REMARK   27  A    between atoms: _76  and  _78
REMARK   28  A    between atoms: _78  and  _79
REMARK   29  A    between atoms: _78  and  _81
REMARK   30  A    between atoms: _81  and  _82
REMARK   31  A    between atoms: _84  and  _86
REMARK   32  A    between atoms: _86  and  _87
REMARK   33  A    between atoms: _90  and  _92
REMARK   34  A    between atoms: _92  and  _93
REMARK   35  A    between atoms: _92  and  _95
REMARK   36  A    between atoms: _95  and  _96
REMARK   37  A    between atoms: _99  and  _101
REMARK   38  A    between atoms: _101  and  _102
REMARK   39  A    between atoms: _101  and  _104
REMARK   40  A    between atoms: _104  and  _105
REMARK   41  A    between atoms: _110  and  _112
REMARK   42  A    between atoms: _112  and  _113
REMARK   43  A    between atoms: _112  and  _115
REMARK   44  A    between atoms: _115  and  _116
REMARK   45  A    between atoms: _116  and  _117
REMARK   46  A    between atoms: _117  and  _118
REMARK   47  A    between atoms: _118  and  _119
REMARK   48  A    between atoms: _123  and  _125
REMARK   49  A    between atoms: _125  and  _126
REMARK   50  A    between atoms: _125  and  _128
REMARK   51  A    between atoms: _128  and  _129
REMARK   52  A    between atoms: _129  and  _130
REMARK   53  A    between atoms: _133  and  _135
REMARK   54  A    between atoms: _135  and  _136
REMARK   55  A    between atoms: _135  and  _138
REMARK   56  A    between atoms: _138  and  _139
REMARK   57  A    between atoms: _142  and  _144
REMARK   58  A    between atoms: _144  and  _145
REMARK   59  A    between atoms: _144  and  _147
REMARK   60  A    between atoms: _147  and  _148
REMARK   61  A    between atoms: _148  and  _149
REMARK   62  A    between atoms: _151  and  _153
REMARK   63  A    between atoms: _153  and  _154
REMARK   64  A    between atoms: _153  and  _156
REMARK   65  A    between atoms: _156  and  _157
REMARK   66  A    between atoms: _162  and  _164
REMARK   67  A    between atoms: _164  and  _165
REMARK   68  A    between atoms: _164  and  _167
REMARK   69  A    between atoms: _167  and  _168
REMARK   70  A    between atoms: _173  and  _175
REMARK   71  A    between atoms: _175  and  _176
REMARK   72  A    between atoms: _175  and  _178
REMARK   73  A    between atoms: _178  and  _179
REMARK   74  A    between atoms: _184  and  _185
REMARK   75  A    between atoms: _187  and  _189
REMARK   76  A    between atoms: _189  and  _190
REMARK   77  A    between atoms: _189  and  _192
REMARK   78  A    between atoms: _192  and  _193
REMARK   79  A    between atoms: _196  and  _198
REMARK   80  A    between atoms: _198  and  _199
REMARK   81  A    between atoms: _198  and  _201
REMARK   82  A    between atoms: _201  and  _202
REMARK   83  A    between atoms: _204  and  _206
REMARK   84  A    between atoms: _206  and  _207
REMARK   85  A    between atoms: _206  and  _209
REMARK   86  A    between atoms: _211  and  _213
REMARK   87  A    between atoms: _213  and  _214
REMARK   88  A    between atoms: _213  and  _216
REMARK   89  A    between atoms: _218  and  _220
REMARK   90  A    between atoms: _220  and  _221
REMARK   91  A    between atoms: _220  and  _223
REMARK   92  A    between atoms: _223  and  _224
REMARK   93  A    between atoms: _227  and  _229
REMARK   94  A    between atoms: _229  and  _230
REMARK   95  A    between atoms: _229  and  _232
REMARK   96  A    between atoms: _232  and  _233
REMARK   97  A    between atoms: _236  and  _238
REMARK   98  A    between atoms: _238  and  _239
REMARK   99  A    between atoms: _238  and  _241
REMARK  100  A    between atoms: _241  and  _242
REMARK  101  A    between atoms: _252  and  _254
REMARK  102  A    between atoms: _254  and  _255
REMARK  103  A    between atoms: _254  and  _257
REMARK  104  A    between atoms: _257  and  _258
REMARK  105  A    between atoms: _263  and  _264
REMARK  106  A    between atoms: _266  and  _268
REMARK  107  A    between atoms: _268  and  _269
REMARK  108  A    between atoms: _268  and  _271
REMARK  109  A    between atoms: _271  and  _272
REMARK  110  A    between atoms: _272  and  _273
REMARK  111  A    between atoms: _275  and  _277
REMARK  112  A    between atoms: _277  and  _278
REMARK  113  A    between atoms: _277  and  _280
REMARK  114  A    between atoms: _280  and  _281
REMARK  115  A    between atoms: _281  and  _282
REMARK  116  A    between atoms: _282  and  _283
REMARK  117  A    between atoms: _292  and  _294
REMARK  118  A    between atoms: _294  and  _295
REMARK  119  A    between atoms: _294  and  _297
REMARK  120  A    between atoms: _297  and  _298
REMARK  121  A    between atoms: _298  and  _299
REMARK  122  A    between atoms: _304  and  _306
REMARK  123  A    between atoms: _306  and  _307
REMARK  124  A    between atoms: _310  and  _312
REMARK  125  A    between atoms: _312  and  _313
REMARK  126  A    between atoms: _312  and  _315
REMARK  127  A    between atoms: _315  and  _316
REMARK  128  A    between atoms: _316  and  _317
REMARK  129  A    between atoms: _317  and  _318
REMARK  130  A    between atoms: _327  and  _329
REMARK  131  A    between atoms: _329  and  _330
REMARK  132  A    between atoms: _329  and  _332
REMARK  133  A    between atoms: _332  and  _333
REMARK                            x       y       z     vdW  Elec       q    Type
REMARK                         _______ _______ _______ _____ _____    ______ ____
ROOT
ATOM      1  N   PRO A   1     -12.299  19.687 -31.289  0.00  0.00    -0.212 NA
ATOM      2  CA  PRO A   1     -11.323  20.465 -30.527  0.00  0.00    +0.137 C 
ATOM      3  CB  PRO A   1     -12.174  21.573 -29.880  0.00  0.00    +0.027 C 
ATOM      4  CG  PRO A   1     -13.463  21.674 -30.803  0.00  0.00    +0.021 C 
ATOM      5  CD  PRO A   1     -13.651  20.278 -31.282  0.00  0.00    +0.089 C 
ENDROOT
BRANCH   2   6
ATOM      6  C   PRO A   1     -10.582  19.676 -29.412  0.00  0.00    +0.224 C 
ATOM      7  O   PRO A   1     -11.190  18.902 -28.656  0.00  0.00    -0.287 OA
ENDBRANCH   2   6
TORSDOF 1
REMARK  Name = ../refined-set-2016/3jzg/3jzg_pocket.pdb
REMARK  133 active torsions:
REMARK  status: ('A' for Active; 'I' for Inactive)
REMARK    1  A    between atoms: _2  and  _3
REMARK    2  A    between atoms: _8  and  _10
REMARK    3  A    between atoms: _10  and  _11
REMARK    4  A    between atoms: _10  and  _13
REMARK    5  A    between atoms: _13  and  _14
REMARK    6  A    between atoms: _20  and  _22
REMARK    7  A    between atoms: _22  and  _23
REMARK    8  A    between atoms: _25  and  _27
REMARK    9  A    between atoms: _27  and  _28
REMARK   10  A    between atoms: _27  and  _30
REMARK   11  A    between atoms: _30  and  _31
REMARK   12  A    between atoms: _36  and  _38
REMARK   13  A    between atoms: _38  and  _39
REMARK   14  A    between atoms: _38  and  _41
REMARK   15  A    between atoms: _41  and  _42
REMARK   16  A    between atoms: _48  and  _50
REMARK   17  A    between atoms: _50  and  _51
REMARK   18  A    between atoms: _50  and  _53
REMARK   19  A    between atoms: _53  and  _54
REMARK   20  A    between atoms: _59  and  _60
REMARK   21  A    between atoms: _62  and  _64
REMARK   22  A    between atoms: _64  and  _65
REMARK   23  A    between atoms: _64  and  _67
REMARK   24  A    between atoms: _67  and  _68
REMARK   25  A    between atoms: _71  and  _73
REMARK   26  A    between atoms: _73  and  _74
REMARK   27  A    between atoms: _76  and  _78
REMARK   28  A    between atoms: _78  and  _79
REMARK   29  A    between atoms: _78  and  _81
REMARK   30  A    between atoms: _81  and  _82
REMARK   31  A    between atoms: _84  and  _86
REMARK   32  A    between atoms: _86  and  _87
REMARK   33  A    between atoms: _90  and  _92
REMARK   34  A    between atoms: _92  and  _93
REMARK   35  A    between atoms: _92  and  _95
REMARK   36  A    between atoms: _95  and  _96
REMARK   37  A    between atoms: _99  and  _101
REMARK   38  A    between atoms: _101  and  _102
REMARK   39  A    between atoms: _101  and  _104
REMARK   40  A    between atoms: _104  and  _105
REMARK   41  A    between atoms: _110  and  _112
REMARK   42  A    between atoms: _112  and  _113
REMARK   43  A    between atoms: _112  and  _115
REMARK   44  A    between atoms: _115  and  _116
REMARK   45  A    between atoms: _116  and  _117
REMARK   46  A    between atoms: _117  and  _118
REMARK   47  A    between atoms: _118  and  _119
REMARK   48  A    between atoms: _123  and  _125
REMARK   49  A    between atoms: _125  and  _126
REMARK   50  A    between atoms: _125  and  _128
REMARK   51  A    between atoms: _128  and  _129
REMARK   52  A    between atoms: _129  and  _130
REMARK   53  A    between atoms: _133  and  _135
REMARK   54  A    between atoms: _135  and  _136
REMARK   55  A    between atoms: _135  and  _138
REMARK   56  A    between atoms: _138  and  _139
REMARK   57  A    between atoms: _142  and  _144
REMARK   58  A    between atoms: _144  and  _145
REMARK   59  A    between atoms: _144  and  _147
REMARK   60  A    between atoms: _147  and  _148
REMARK   61  A    between atoms: _148  and  _149
REMARK   62  A    between atoms: _151  and  _153
REMARK   63  A    between atoms: _153  and  _154
REMARK   64  A    between atoms: _153  and  _156
REMARK   65  A    between atoms: _156  and  _157
REMARK   66  A    between atoms: _162  and  _164
REMARK   67  A    between atoms: _164  and  _165
REMARK   68  A    between atoms: _164  and  _167
REMARK   69  A    between atoms: _167  and  _168
REMARK   70  A    between atoms: _173  and  _175
REMARK   71  A    between atoms: _175  and  _176
REMARK   72  A    between atoms: _175  and  _178
REMARK   73  A    between atoms: _178  and  _179
REMARK   74  A    between atoms: _184  and  _185
REMARK   75  A    between atoms: _187  and  _189
REMARK   76  A    between atoms: _189  and  _190
REMARK   77  A    between atoms: _189  and  _192
REMARK   78  A    between atoms: _192  and  _193
REMARK   79  A    between atoms: _196  and  _198
REMARK   80  A    between atoms: _198  and  _199
REMARK   81  A    between atoms: _198  and  _201
REMARK   82  A    between atoms: _201  and  _202
REMARK   83  A    between atoms: _204  and  _206
REMARK   84  A    between atoms: _206  and  _207
REMARK   85  A    between atoms: _206  and  _209
REMARK   86  A    between atoms: _211  and  _213
REMARK   87  A    between atoms: _213  and  _214
REMARK   88  A    between atoms: _213  and  _216
REMARK   89  A    between atoms: _218  and  _220
REMARK   90  A    between atoms: _220  and  _221
REMARK   91  A    between atoms: _220  and  _223
REMARK   92  A    between atoms: _223  and  _224
REMARK   93  A    between atoms: _227  and  _229
REMARK   94  A    between atoms: _229  and  _230
REMARK   95  A    between atoms: _229  and  _232
REMARK   96  A    between atoms: _232  and  _233
REMARK   97  A    between atoms: _236  and  _238
REMARK   98  A    between atoms: _238  and  _239
REMARK   99  A    between atoms: _238  and  _241
REMARK  100  A    between atoms: _241  and  _242
REMARK  101  A    between atoms: _252  and  _254
REMARK  102  A    between atoms: _254  and  _255
REMARK  103  A    between atoms: _254  and  _257
REMARK  104  A    between atoms: _257  and  _258
REMARK  105  A    between atoms: _263  and  _264
REMARK  106  A    between atoms: _266  and  _268
REMARK  107  A    between atoms: _268  and  _269
REMARK  108  A    between atoms: _268  and  _271
REMARK  109  A    between atoms: _271  and  _272
REMARK  110  A    between atoms: _272  and  _273
REMARK  111  A    between atoms: _275  and  _277
REMARK  112  A    between atoms: _277  and  _278
REMARK  113  A    between atoms: _277  and  _280
REMARK  114  A    between atoms: _280  and  _281
REMARK  115  A    between atoms: _281  and  _282
REMARK  116  A    between atoms: _282  and  _283
REMARK  117  A    between atoms: _292  and  _294
REMARK  118  A    between atoms: _294  and  _295
REMARK  119  A    between atoms: _294  and  _297
REMARK  120  A    between atoms: _297  and  _298
REMARK  121  A    between atoms: _298  and  _299
REMARK  122  A    between atoms: _304  and  _306
REMARK  123  A    between atoms: _306  and  _307
REMARK  124  A    between atoms: _310  and  _312
REMARK  125  A    between atoms: _312  and  _313
REMARK  126  A    between atoms: _312  and  _315
REMARK  127  A    between atoms: _315  and  _316
REMARK  128  A    between atoms: _316  and  _317
REMARK  129  A    between atoms: _317  and  _318
REMARK  130  A    between atoms: _327  and  _329
REMARK  131  A    between atoms: _329  and  _330
REMARK  132  A    between atoms: _329  and  _332
REMARK  133  A    between atoms: _332  and  _333
REMARK                            x       y       z     vdW  Elec       q    Type
REMARK                         _______ _______ _______ _____ _____    ______ ____
ROOT
ATOM      1  CA  PHE A   1      -9.703  21.672 -25.162  0.00  0.00    +0.149 C 
ENDROOT
BRANCH   1   2
ATOM      2  C   PHE A   1      -8.628  21.795 -24.082  0.00  0.00    +0.239 C 
ATOM      3  O   PHE A   1      -8.548  22.792 -23.351  0.00  0.00    -0.274 OA
ATOM      4  N   GLY A   2      -7.858  20.748 -23.884  0.00  0.00    -0.297 N 
ATOM      5  H   GLY A   2      -7.977  19.868 -24.426  0.00  0.00    +0.150 HD
BRANCH   4   6
ATOM      6  CA  GLY A   2      -6.837  20.888 -22.872  0.00  0.00    +0.163 C 
BRANCH   6   7
ATOM      7  C   GLY A   2      -5.578  20.122 -23.184  0.00  0.00    +0.229 C 
ATOM      8  O   GLY A   2      -5.598  19.083 -23.921  0.00  0.00    -0.286 OA
ENDBRANCH   6   7
ENDBRANCH   4   6
ENDBRANCH   1   2
BRANCH   1   9
ATOM      9  N   PHE A   1      -9.411  20.602 -26.092  0.00  0.00    -0.238 NA
ATOM     10  H   PHE A   1      -9.803  19.654 -25.922  0.00  0.00    +0.142 HD
ENDBRANCH   1   9
BRANCH   1  11
ATOM     11  CB  PHE A   1     -11.052  21.410 -24.471  0.00  0.00    +0.053 C 
BRANCH  11  12
ATOM     12  CG  PHE A   1     -12.251  21.648 -25.360  0.00  0.00    -0.020 A 
ATOM     13  CD2 PHE A   1     -13.185  20.639 -25.567  0.00  0.00    -0.004 A 
ATOM     14  CE2 PHE A   1     -14.291  20.845 -26.419  0.00  0.00    -0.000 A 
ATOM     15  CZ  PHE A   1     -14.440  22.098 -27.051  0.00  0.00    -0.000 A 
ATOM     16  CE1 PHE A   1     -13.502  23.112 -26.835  0.00  0.00    -0.000 A 
ATOM     17  CD1 PHE A   1     -12.417  22.882 -26.003  0.00  0.00    -0.004 A 
ENDBRANCH  11  12
ENDBRANCH   1  11
TORSDOF 6
REMARK  Name = ../refined-set-2016/3jzg/3jzg_pocket.pdb
REMARK  133 active torsions:
REMARK  status: ('A' for Active; 'I' for Inactive)
REMARK    1  A    between atoms: _2  and  _3
REMARK    2  A    between atoms: _8  and  _10
REMARK    3  A    between atoms: _10  and  _11
REMARK    4  A    between atoms: _10  and  _13
REMARK    5  A    between atoms: _13  and  _14
REMARK    6  A    between atoms: _20  and  _22
REMARK    7  A    between atoms: _22  and  _23
REMARK    8  A    between atoms: _25  and  _27
REMARK    9  A    between atoms: _27  and  _28
REMARK   10  A    between atoms: _27  and  _30
REMARK   11  A    between atoms: _30  and  _31
REMARK   12  A    between atoms: _36  and  _38
REMARK   13  A    between atoms: _38  and  _39
REMARK   14  A    between atoms: _38  and  _41
REMARK   15  A    between atoms: _41  and  _42
REMARK   16  A    between atoms: _48  and  _50
REMARK   17  A    between atoms: _50  and  _51
REMARK   18  A    between atoms: _50  and  _53
REMARK   19  A    between atoms: _53  and  _54
REMARK   20  A    between atoms: _59  and  _60
REMARK   21  A    between atoms: _62  and  _64
REMARK   22  A    between atoms: _64  and  _65
REMARK   23  A    between atoms: _64  and  _67
REMARK   24  A    between atoms: _67  and  _68
REMARK   25  A    between atoms: _71  and  _73
REMARK   26  A    between atoms: _73  and  _74
REMARK   27  A    between atoms: _76  and  _78
REMARK   28  A    between atoms: _78  and  _79
REMARK   29  A    between atoms: _78  and  _81
REMARK   30  A    between atoms: _81  and  _82
REMARK   31  A    between atoms: _84  and  _86
REMARK   32  A    between atoms: _86  and  _87
REMARK   33  A    between atoms: _90  and  _92
REMARK   34  A    between atoms: _92  and  _93
REMARK   35  A    between atoms: _92  and  _95
REMARK   36  A    between atoms: _95  and  _96
REMARK   37  A    between atoms: _99  and  _101
REMARK   38  A    between atoms: _101  and  _102
REMARK   39  A    between atoms: _101  and  _104
REMARK   40  A    between atoms: _104  and  _105
REMARK   41  A    between atoms: _110  and  _112
REMARK   42  A    between atoms: _112  and  _113
REMARK   43  A    between atoms: _112  and  _115
REMARK   44  A    between atoms: _115  and  _116
REMARK   45  A    between atoms: _116  and  _117
REMARK   46  A    between atoms: _117  and  _118
REMARK   47  A    between atoms: _118  and  _119
REMARK   48  A    between atoms: _123  and  _125
REMARK   49  A    between atoms: _125  and  _126
REMARK   50  A    between atoms: _125  and  _128
REMARK   51  A    between atoms: _128  and  _129
REMARK   52  A    between atoms: _129  and  _130
REMARK   53  A    between atoms: _133  and  _135
REMARK   54  A    between atoms: _135  and  _136
REMARK   55  A    between atoms: _135  and  _138
REMARK   56  A    between atoms: _138  and  _139
REMARK   57  A    between atoms: _142  and  _144
REMARK   58  A    between atoms: _144  and  _145
REMARK   59  A    between atoms: _144  and  _147
REMARK   60  A    between atoms: _147  and  _148
REMARK   61  A    between atoms: _148  and  _149
REMARK   62  A    between atoms: _151  and  _153
REMARK   63  A    between atoms: _153  and  _154
REMARK   64  A    between atoms: _153  and  _156
REMARK   65  A    between atoms: _156  and  _157
REMARK   66  A    between atoms: _162  and  _164
REMARK   67  A    between atoms: _164  and  _165
REMARK   68  A    between atoms: _164  and  _167
REMARK   69  A    between atoms: _167  and  _168
REMARK   70  A    between atoms: _173  and  _175
REMARK   71  A    between atoms: _175  and  _176
REMARK   72  A    between atoms: _175  and  _178
REMARK   73  A    between atoms: _178  and  _179
REMARK   74  A    between atoms: _184  and  _185
REMARK   75  A    between atoms: _187  and  _189
REMARK   76  A    between atoms: _189  and  _190
REMARK   77  A    between atoms: _189  and  _192
REMARK   78  A    between atoms: _192  and  _193
REMARK   79  A    between atoms: _196  and  _198
REMARK   80  A    between atoms: _198  and  _199
REMARK   81  A    between atoms: _198  and  _201
REMARK   82  A    between atoms: _201  and  _202
REMARK   83  A    between atoms: _204  and  _206
REMARK   84  A    between atoms: _206  and  _207
REMARK   85  A    between atoms: _206  and  _209
REMARK   86  A    between atoms: _211  and  _213
REMARK   87  A    between atoms: _213  and  _214
REMARK   88  A    between atoms: _213  and  _216
REMARK   89  A    between atoms: _218  and  _220
REMARK   90  A    between atoms: _220  and  _221
REMARK   91  A    between atoms: _220  and  _223
REMARK   92  A    between atoms: _223  and  _224
REMARK   93  A    between atoms: _227  and  _229
REMARK   94  A    between atoms: _229  and  _230
REMARK   95  A    between atoms: _229  and  _232
REMARK   96  A    between atoms: _232  and  _233
REMARK   97  A    between atoms: _236  and  _238
REMARK   98  A    between atoms: _238  and  _239
REMARK   99  A    between atoms: _238  and  _241
REMARK  100  A    between atoms: _241  and  _242
REMARK  101  A    between atoms: _252  and  _254
REMARK  102  A    between atoms: _254  and  _255
REMARK  103  A    between atoms: _254  and  _257
REMARK  104  A    between atoms: _257  and  _258
REMARK  105  A    between atoms: _263  and  _264
REMARK  106  A    between atoms: _266  and  _268
REMARK  107  A    between atoms: _268  and  _269
REMARK  108  A    between atoms: _268  and  _271
REMARK  109  A    between atoms: _271  and  _272
REMARK  110  A    between atoms: _272  and  _273
REMARK  111  A    between atoms: _275  and  _277
REMARK  112  A    between atoms: _277  and  _278
REMARK  113  A    between atoms: _277  and  _280
REMARK  114  A    between atoms: _280  and  _281
REMARK  115  A    between atoms: _281  and  _282
REMARK  116  A    between atoms: _282  and  _283
REMARK  117  A    between atoms: _292  and  _294
REMARK  118  A    between atoms: _294  and  _295
REMARK  119  A    between atoms: _294  and  _297
REMARK  120  A    between atoms: _297  and  _298
REMARK  121  A    between atoms: _298  and  _299
REMARK  122  A    between atoms: _304  and  _306
REMARK  123  A    between atoms: _306  and  _307
REMARK  124  A    between atoms: _310  and  _312
REMARK  125  A    between atoms: _312  and  _313
REMARK  126  A    between atoms: _312  and  _315
REMARK  127  A    between atoms: _315  and  _316
REMARK  128  A    between atoms: _316  and  _317
REMARK  129  A    between atoms: _317  and  _318
REMARK  130  A    between atoms: _327  and  _329
REMARK  131  A    between atoms: _329  and  _330
REMARK  132  A    between atoms: _329  and  _332
REMARK  133  A    between atoms: _332  and  _333
REMARK                            x       y       z     vdW  Elec       q    Type
REMARK                         _______ _______ _______ _____ _____    ______ ____
ROOT
ATOM      1  C   PHE A   2     -13.104  17.157 -22.416  0.00  0.00    +0.241 C 
ATOM      2  N   TYR A   3     -13.087  17.964 -21.366  0.00  0.00    -0.297 N 
ATOM      3  H   TYR A   3     -13.376  17.581 -20.443  0.00  0.00    +0.150 HD
ATOM      4  O   PHE A   2     -12.698  17.476 -23.531  0.00  0.00    -0.273 OA
ENDROOT
BRANCH   1   5
ATOM      5  CA  PHE A   2     -13.625  15.752 -22.161  0.00  0.00    +0.153 C 
BRANCH   5   8
ATOM      6  C   ASN A   1     -15.776  15.847 -23.145  0.00  0.00    +0.239 C 
ATOM      7  O   ASN A   1     -16.097  16.605 -22.215  0.00  0.00    -0.274 OA
ATOM      8  N   PHE A   2     -14.549  15.371 -23.241  0.00  0.00    -0.297 N 
ATOM      9  H   PHE A   2     -14.253  14.764 -24.032  0.00  0.00    +0.150 HD
BRANCH   6  10
ATOM     10  CA  ASN A   1     -16.784  15.357 -24.195  0.00  0.00    +0.154 C 
BRANCH  10  11
ATOM     11  N   ASN A   1     -17.777  14.492 -23.609  0.00  0.00    -0.238 NA
ATOM     12  H   ASN A   1     -18.259  14.761 -22.728  0.00  0.00    +0.142 HD
ENDBRANCH  10  11
BRANCH  10  13
ATOM     13  CB  ASN A   1     -17.457  16.486 -25.003  0.00  0.00    +0.111 C 
BRANCH  13  14
ATOM     14  CG  ASN A   1     -16.443  17.301 -25.867  0.00  0.00    +0.221 C 
ATOM     15  OD1 ASN A   1     -15.198  17.022 -25.925  0.00  0.00    -0.275 OA
ATOM     16  ND2 ASN A   1     -16.974  18.363 -26.510  0.00  0.00    -0.329 N 
ATOM     17 HD21 ASN A   1     -17.993  18.558 -26.439  0.00  0.00    +0.145 HD
ATOM     18 HD22 ASN A   1     -16.364  18.986 -27.077  0.00  0.00    +0.145 HD
ENDBRANCH  13  14
ENDBRANCH  10  13
ENDBRANCH   6  10
ENDBRANCH   5   8
BRANCH   5  19
ATOM     19  CB  PHE A   2     -12.451  14.783 -22.016  0.00  0.00    +0.055 C 
BRANCH  19  20
ATOM     20  CG  PHE A   2     -12.833  13.451 -21.460  0.00  0.00    -0.020 A 
ATOM     21  CD2 PHE A   2     -13.553  13.342 -20.266  0.00  0.00    -0.004 A 
ATOM     22  CE2 PHE A   2     -13.907  12.106 -19.736  0.00  0.00    -0.000 A 
ATOM     23  CZ  PHE A   2     -13.515  10.959 -20.406  0.00  0.00    -0.000 A 
ATOM     24  CE1 PHE A   2     -12.763  11.071 -21.575  0.00  0.00    -0.000 A 
ATOM     25  CD1 PHE A   2     -12.463  12.303 -22.110  0.00  0.00    -0.004 A 
ENDBRANCH  19  20
ENDBRANCH   5  19
ENDBRANCH   1   5
BRANCH   2  26
ATOM     26  CA  TYR A   3     -12.675  19.391 -21.442  0.00  0.00    +0.153 C 
BRANCH  26  27
ATOM     27  C   TYR A   3     -11.344  19.627 -20.793  0.00  0.00    +0.241 C 
ATOM     28  N   THR A   4     -11.088  18.856 -19.729  0.00  0.00    -0.296 N 
ATOM     29  H   THR A   4     -11.674  18.023 -19.518  0.00  0.00    +0.150 HD
ATOM     30  O   TYR A   3     -10.587  20.549 -21.188  0.00  0.00    -0.273 OA
BRANCH  28  31
ATOM     31  CA  THR A   4      -9.969  19.217 -18.879  0.00  0.00    +0.164 C 
BRANCH  31  32
ATOM     32  CB  THR A   4     -10.413  20.197 -17.749  0.00  0.00    +0.136 C 
ATOM     33  CG2 THR A   4     -11.412  19.556 -16.817  0.00  0.00    +0.034 C 
BRANCH  32  34
ATOM     34  OG1 THR A   4      -9.288  20.608 -16.978  0.00  0.00    -0.382 OA
ATOM     35  HG1 THR A   4      -9.586  21.228 -16.266  0.00  0.00    +0.210 HD
ENDBRANCH  32  34
ENDBRANCH  31  32
BRANCH  31  36
ATOM     36  C   THR A   4      -9.246  18.034 -18.286  0.00  0.00    +0.229 C 
ATOM     37  O   THR A   4      -9.845  16.971 -18.081  0.00  0.00    -0.286 OA
ENDBRANCH  31  36
ENDBRANCH  28  31
ENDBRANCH  26  27
BRANCH  26  38
ATOM     38  CB  TYR A   3     -13.704  20.282 -20.673  0.00  0.00    +0.055 C 
BRANCH  38  39
ATOM     39  CG  TYR A   3     -15.074  20.303 -21.295  0.00  0.00    -0.020 A 
ATOM     40  CD2 TYR A   3     -16.169  20.851 -20.594  0.00  0.00    -0.001 A 
ATOM     41  CE2 TYR A   3     -17.415  20.947 -21.168  0.00  0.00    +0.036 A 
ATOM     42  CZ  TYR A   3     -17.630  20.488 -22.417  0.00  0.00    +0.134 A 
ATOM     43  CE1 TYR A   3     -16.589  19.954 -23.183  0.00  0.00    +0.036 A 
ATOM     44  CD1 TYR A   3     -15.295  19.853 -22.603  0.00  0.00    -0.001 A 
BRANCH  42  45
ATOM     45  OH  TYR A   3     -18.906  20.645 -22.890  0.00  0.00    -0.506 OA
ATOM     46  HH  TYR A   3     -18.964  20.280 -23.808  0.00  0.00    +0.292 HD
ENDBRANCH  42  45
ENDBRANCH  38  39
ENDBRANCH  26  38
ENDBRANCH   2  26
TORSDOF 17
REMARK  Name = ../refined-set-2016/3jzg/3jzg_pocket.pdb
REMARK  133 active torsions:
REMARK  status: ('A' for Active; 'I' for Inactive)
REMARK    1  A    between atoms: _2  and  _3
REMARK    2  A    between atoms: _8  and  _10
REMARK    3  A    between atoms: _10  and  _11
REMARK    4  A    between atoms: _10  and  _13
REMARK    5  A    between atoms: _13  and  _14
REMARK    6  A    between atoms: _20  and  _22
REMARK    7  A    between atoms: _22  and  _23
REMARK    8  A    between atoms: _25  and  _27
REMARK    9  A    between atoms: _27  and  _28
REMARK   10  A    between atoms: _27  and  _30
REMARK   11  A    between atoms: _30  and  _31
REMARK   12  A    between atoms: _36  and  _38
REMARK   13  A    between atoms: _38  and  _39
REMARK   14  A    between atoms: _38  and  _41
REMARK   15  A    between atoms: _41  and  _42
REMARK   16  A    between atoms: _48  and  _50
REMARK   17  A    between atoms: _50  and  _51
REMARK   18  A    between atoms: _50  and  _53
REMARK   19  A    between atoms: _53  and  _54
REMARK   20  A    between atoms: _59  and  _60
REMARK   21  A    between atoms: _62  and  _64
REMARK   22  A    between atoms: _64  and  _65
REMARK   23  A    between atoms: _64  and  _67
REMARK   24  A    between atoms: _67  and  _68
REMARK   25  A    between atoms: _71  and  _73
REMARK   26  A    between atoms: _73  and  _74
REMARK   27  A    between atoms: _76  and  _78
REMARK   28  A    between atoms: _78  and  _79
REMARK   29  A    between atoms: _78  and  _81
REMARK   30  A    between atoms: _81  and  _82
REMARK   31  A    between atoms: _84  and  _86
REMARK   32  A    between atoms: _86  and  _87
REMARK   33  A    between atoms: _90  and  _92
REMARK   34  A    between atoms: _92  and  _93
REMARK   35  A    between atoms: _92  and  _95
REMARK   36  A    between atoms: _95  and  _96
REMARK   37  A    between atoms: _99  and  _101
REMARK   38  A    between atoms: _101  and  _102
REMARK   39  A    between atoms: _101  and  _104
REMARK   40  A    between atoms: _104  and  _105
REMARK   41  A    between atoms: _110  and  _112
REMARK   42  A    between atoms: _112  and  _113
REMARK   43  A    between atoms: _112  and  _115
REMARK   44  A    between atoms: _115  and  _116
REMARK   45  A    between atoms: _116  and  _117
REMARK   46  A    between atoms: _117  and  _118
REMARK   47  A    between atoms: _118  and  _119
REMARK   48  A    between atoms: _123  and  _125
REMARK   49  A    between atoms: _125  and  _126
REMARK   50  A    between atoms: _125  and  _128
REMARK   51  A    between atoms: _128  and  _129
REMARK   52  A    between atoms: _129  and  _130
REMARK   53  A    between atoms: _133  and  _135
REMARK   54  A    between atoms: _135  and  _136
REMARK   55  A    between atoms: _135  and  _138
REMARK   56  A    between atoms: _138  and  _139
REMARK   57  A    between atoms: _142  and  _144
REMARK   58  A    between atoms: _144  and  _145
REMARK   59  A    between atoms: _144  and  _147
REMARK   60  A    between atoms: _147  and  _148
REMARK   61  A    between atoms: _148  and  _149
REMARK   62  A    between atoms: _151  and  _153
REMARK   63  A    between atoms: _153  and  _154
REMARK   64  A    between atoms: _153  and  _156
REMARK   65  A    between atoms: _156  and  _157
REMARK   66  A    between atoms: _162  and  _164
REMARK   67  A    between atoms: _164  and  _165
REMARK   68  A    between atoms: _164  and  _167
REMARK   69  A    between atoms: _167  and  _168
REMARK   70  A    between atoms: _173  and  _175
REMARK   71  A    between atoms: _175  and  _176
REMARK   72  A    between atoms: _175  and  _178
REMARK   73  A    between atoms: _178  and  _179
REMARK   74  A    between atoms: _184  and  _185
REMARK   75  A    between atoms: _187  and  _189
REMARK   76  A    between atoms: _189  and  _190
REMARK   77  A    between atoms: _189  and  _192
REMARK   78  A    between atoms: _192  and  _193
REMARK   79  A    between atoms: _196  and  _198
REMARK   80  A    between atoms: _198  and  _199
REMARK   81  A    between atoms: _198  and  _201
REMARK   82  A    between atoms: _201  and  _202
REMARK   83  A    between atoms: _204  and  _206
REMARK   84  A    between atoms: _206  and  _207
REMARK   85  A    between atoms: _206  and  _209
REMARK   86  A    between atoms: _211  and  _213
REMARK   87  A    between atoms: _213  and  _214
REMARK   88  A    between atoms: _213  and  _216
REMARK   89  A    between atoms: _218  and  _220
REMARK   90  A    between atoms: _220  and  _221
REMARK   91  A    between atoms: _220  and  _223
REMARK   92  A    between atoms: _223  and  _224
REMARK   93  A    between atoms: _227  and  _229
REMARK   94  A    between atoms: _229  and  _230
REMARK   95  A    between atoms: _229  and  _232
REMARK   96  A    between atoms: _232  and  _233
REMARK   97  A    between atoms: _236  and  _238
REMARK   98  A    between atoms: _238  and  _239
REMARK   99  A    between atoms: _238  and  _241
REMARK  100  A    between atoms: _241  and  _242
REMARK  101  A    between atoms: _252  and  _254
REMARK  102  A    between atoms: _254  and  _255
REMARK  103  A    between atoms: _254  and  _257
REMARK  104  A    between atoms: _257  and  _258
REMARK  105  A    between atoms: _263  and  _264
REMARK  106  A    between atoms: _266  and  _268
REMARK  107  A    between atoms: _268  and  _269
REMARK  108  A    between atoms: _268  and  _271
REMARK  109  A    between atoms: _271  and  _272
REMARK  110  A    between atoms: _272  and  _273
REMARK  111  A    between atoms: _275  and  _277
REMARK  112  A    between atoms: _277  and  _278
REMARK  113  A    between atoms: _277  and  _280
REMARK  114  A    between atoms: _280  and  _281
REMARK  115  A    between atoms: _281  and  _282
REMARK  116  A    between atoms: _282  and  _283
REMARK  117  A    between atoms: _292  and  _294
REMARK  118  A    between atoms: _294  and  _295
REMARK  119  A    between atoms: _294  and  _297
REMARK  120  A    between atoms: _297  and  _298
REMARK  121  A    between atoms: _298  and  _299
REMARK  122  A    between atoms: _304  and  _306
REMARK  123  A    between atoms: _306  and  _307
REMARK  124  A    between atoms: _310  and  _312
REMARK  125  A    between atoms: _312  and  _313
REMARK  126  A    between atoms: _312  and  _315
REMARK  127  A    between atoms: _315  and  _316
REMARK  128  A    between atoms: _316  and  _317
REMARK  129  A    between atoms: _317  and  _318
REMARK  130  A    between atoms: _327  and  _329
REMARK  131  A    between atoms: _329  and  _330
REMARK  132  A    between atoms: _329  and  _332
REMARK  133  A    between atoms: _332  and  _333
REMARK                            x       y       z     vdW  Elec       q    Type
REMARK                         _______ _______ _______ _____ _____    ______ ____
ROOT
ATOM      1  C   GLY A   1     -17.442  17.312 -19.018  0.00  0.00    +0.240 C 
ATOM      2  O   GLY A   1     -17.965  17.418 -17.871  0.00  0.00    -0.274 OA
ATOM      3  N   SER A   2     -18.143  17.286 -20.170  0.00  0.00    -0.296 N 
ATOM      4  H   SER A   2     -17.641  17.048 -21.049  0.00  0.00    +0.150 HD
ENDROOT
BRANCH   1   5
ATOM      5  CA  GLY A   1     -15.945  17.213 -19.153  0.00  0.00    +0.169 C 
BRANCH   5   6
ATOM      6  N   GLY A   1     -15.302  16.407 -18.112  0.00  0.00    -0.236 NA
ATOM      7  H   GLY A   1     -15.917  15.879 -17.460  0.00  0.00    +0.142 HD
ENDBRANCH   5   6
ENDBRANCH   1   5
BRANCH   3   8
ATOM      8  CA  SER A   2     -19.591  17.580 -20.245  0.00  0.00    +0.166 C 
BRANCH   8   9
ATOM      9  CB  SER A   2     -20.479  16.677 -19.410  0.00  0.00    +0.229 C 
ATOM     10  OG  SER A   2     -21.452  17.180 -18.868  0.00  0.00    -0.286 OA
ENDBRANCH   8   9
BRANCH   8  11
ATOM     11  C   SER A   2     -20.178  17.667 -21.699  0.00  0.00    +0.165 C 
BRANCH  11  12
ATOM     12  O   SER A   2     -19.879  16.513 -22.465  0.00  0.00    -0.380 OA
ATOM     13  H   SER A   2     -20.266  15.716 -22.023  0.00  0.00    +0.211 HD
ENDBRANCH  11  12
ENDBRANCH   8  11
ENDBRANCH   3   8
TORSDOF 6
REMARK  Name = ../refined-set-2016/3jzg/3jzg_pocket.pdb
REMARK  133 active torsions:
REMARK  status: ('A' for Active; 'I' for Inactive)
REMARK    1  A    between atoms: _2  and  _3
REMARK    2  A    between atoms: _8  and  _10
REMARK    3  A    between atoms: _10  and  _11
REMARK    4  A    between atoms: _10  and  _13
REMARK    5  A    between atoms: _13  and  _14
REMARK    6  A    between atoms: _20  and  _22
REMARK    7  A    between atoms: _22  and  _23
REMARK    8  A    between atoms: _25  and  _27
REMARK    9  A    between atoms: _27  and  _28
REMARK   10  A    between atoms: _27  and  _30
REMARK   11  A    between atoms: _30  and  _31
REMARK   12  A    between atoms: _36  and  _38
REMARK   13  A    between atoms: _38  and  _39
REMARK   14  A    between atoms: _38  and  _41
REMARK   15  A    between atoms: _41  and  _42
REMARK   16  A    between atoms: _48  and  _50
REMARK   17  A    between atoms: _50  and  _51
REMARK   18  A    between atoms: _50  and  _53
REMARK   19  A    between atoms: _53  and  _54
REMARK   20  A    between atoms: _59  and  _60
REMARK   21  A    between atoms: _62  and  _64
REMARK   22  A    between atoms: _64  and  _65
REMARK   23  A    between atoms: _64  and  _67
REMARK   24  A    between atoms: _67  and  _68
REMARK   25  A    between atoms: _71  and  _73
REMARK   26  A    between atoms: _73  and  _74
REMARK   27  A    between atoms: _76  and  _78
REMARK   28  A    between atoms: _78  and  _79
REMARK   29  A    between atoms: _78  and  _81
REMARK   30  A    between atoms: _81  and  _82
REMARK   31  A    between atoms: _84  and  _86
REMARK   32  A    between atoms: _86  and  _87
REMARK   33  A    between atoms: _90  and  _92
REMARK   34  A    between atoms: _92  and  _93
REMARK   35  A    between atoms: _92  and  _95
REMARK   36  A    between atoms: _95  and  _96
REMARK   37  A    between atoms: _99  and  _101
REMARK   38  A    between atoms: _101  and  _102
REMARK   39  A    between atoms: _101  and  _104
REMARK   40  A    between atoms: _104  and  _105
REMARK   41  A    between atoms: _110  and  _112
REMARK   42  A    between atoms: _112  and  _113
REMARK   43  A    between atoms: _112  and  _115
REMARK   44  A    between atoms: _115  and  _116
REMARK   45  A    between atoms: _116  and  _117
REMARK   46  A    between atoms: _117  and  _118
REMARK   47  A    between atoms: _118  and  _119
REMARK   48  A    between atoms: _123  and  _125
REMARK   49  A    between atoms: _125  and  _126
REMARK   50  A    between atoms: _125  and  _128
REMARK   51  A    between atoms: _128  and  _129
REMARK   52  A    between atoms: _129  and  _130
REMARK   53  A    between atoms: _133  and  _135
REMARK   54  A    between atoms: _135  and  _136
REMARK   55  A    between atoms: _135  and  _138
REMARK   56  A    between atoms: _138  and  _139
REMARK   57  A    between atoms: _142  and  _144
REMARK   58  A    between atoms: _144  and  _145
REMARK   59  A    between atoms: _144  and  _147
REMARK   60  A    between atoms: _147  and  _148
REMARK   61  A    between atoms: _148  and  _149
REMARK   62  A    between atoms: _151  and  _153
REMARK   63  A    between atoms: _153  and  _154
REMARK   64  A    between atoms: _153  and  _156
REMARK   65  A    between atoms: _156  and  _157
REMARK   66  A    between atoms: _162  and  _164
REMARK   67  A    between atoms: _164  and  _165
REMARK   68  A    between atoms: _164  and  _167
REMARK   69  A    between atoms: _167  and  _168
REMARK   70  A    between atoms: _173  and  _175
REMARK   71  A    between atoms: _175  and  _176
REMARK   72  A    between atoms: _175  and  _178
REMARK   73  A    between atoms: _178  and  _179
REMARK   74  A    between atoms: _184  and  _185
REMARK   75  A    between atoms: _187  and  _189
REMARK   76  A    between atoms: _189  and  _190
REMARK   77  A    between atoms: _189  and  _192
REMARK   78  A    between atoms: _192  and  _193
REMARK   79  A    between atoms: _196  and  _198
REMARK   80  A    between atoms: _198  and  _199
REMARK   81  A    between atoms: _198  and  _201
REMARK   82  A    between atoms: _201  and  _202
REMARK   83  A    between atoms: _204  and  _206
REMARK   84  A    between atoms: _206  and  _207
REMARK   85  A    between atoms: _206  and  _209
REMARK   86  A    between atoms: _211  and  _213
REMARK   87  A    between atoms: _213  and  _214
REMARK   88  A    between atoms: _213  and  _216
REMARK   89  A    between atoms: _218  and  _220
REMARK   90  A    between atoms: _220  and  _221
REMARK   91  A    between atoms: _220  and  _223
REMARK   92  A    between atoms: _223  and  _224
REMARK   93  A    between atoms: _227  and  _229
REMARK   94  A    between atoms: _229  and  _230
REMARK   95  A    between atoms: _229  and  _232
REMARK   96  A    between atoms: _232  and  _233
REMARK   97  A    between atoms: _236  and  _238
REMARK   98  A    between atoms: _238  and  _239
REMARK   99  A    between atoms: _238  and  _241
REMARK  100  A    between atoms: _241  and  _242
REMARK  101  A    between atoms: _252  and  _254
REMARK  102  A    between atoms: _254  and  _255
REMARK  103  A    between atoms: _254  and  _257
REMARK  104  A    between atoms: _257  and  _258
REMARK  105  A    between atoms: _263  and  _264
REMARK  106  A    between atoms: _266  and  _268
REMARK  107  A    between atoms: _268  and  _269
REMARK  108  A    between atoms: _268  and  _271
REMARK  109  A    between atoms: _271  and  _272
REMARK  110  A    between atoms: _272  and  _273
REMARK  111  A    between atoms: _275  and  _277
REMARK  112  A    between atoms: _277  and  _278
REMARK  113  A    between atoms: _277  and  _280
REMARK  114  A    between atoms: _280  and  _281
REMARK  115  A    between atoms: _281  and  _282
REMARK  116  A    between atoms: _282  and  _283
REMARK  117  A    between atoms: _292  and  _294
REMARK  118  A    between atoms: _294  and  _295
REMARK  119  A    between atoms: _294  and  _297
REMARK  120  A    between atoms: _297  and  _298
REMARK  121  A    between atoms: _298  and  _299
REMARK  122  A    between atoms: _304  and  _306
REMARK  123  A    between atoms: _306  and  _307
REMARK  124  A    between atoms: _310  and  _312
REMARK  125  A    between atoms: _312  and  _313
REMARK  126  A    between atoms: _312  and  _315
REMARK  127  A    between atoms: _315  and  _316
REMARK  128  A    between atoms: _316  and  _317
REMARK  129  A    between atoms: _317  and  _318
REMARK  130  A    between atoms: _327  and  _329
REMARK  131  A    between atoms: _329  and  _330
REMARK  132  A    between atoms: _329  and  _332
REMARK  133  A    between atoms: _332  and  _333
REMARK                            x       y       z     vdW  Elec       q    Type
REMARK                         _______ _______ _______ _____ _____    ______ ____
ROOT
ATOM      1  CA  ILE A   2     -16.916  20.132 -15.366  0.00  0.00    +0.148 C 
ENDROOT
BRANCH   1   4
ATOM      2  C   ALA A   1     -19.233  20.352 -16.051  0.00  0.00    +0.238 C 
ATOM      3  O   ALA A   1     -19.479  21.293 -15.296  0.00  0.00    -0.274 OA
ATOM      4  N   ILE A   2     -18.102  19.678 -16.048  0.00  0.00    -0.297 N 
ATOM      5  H   ILE A   2     -18.062  18.775 -16.562  0.00  0.00    +0.150 HD
BRANCH   2   6
ATOM      6  CA  ALA A   1     -20.266  19.850 -17.036  0.00  0.00    +0.145 C 
ATOM      7  CB  ALA A   1     -20.238  20.727 -18.340  0.00  0.00    +0.028 C 
BRANCH   6   8
ATOM      8  N   ALA A   1     -21.631  19.788 -16.436  0.00  0.00    -0.238 NA
ATOM      9  H   ALA A   1     -22.431  20.209 -16.950  0.00  0.00    +0.142 HD
ENDBRANCH   6   8
ENDBRANCH   2   6
ENDBRANCH   1   4
BRANCH   1  10
ATOM     10  C   ILE A   2     -16.018  20.933 -16.325  0.00  0.00    +0.241 C 
ATOM     11  N   ASN A   3     -15.788  22.209 -16.024  0.00  0.00    -0.298 N 
ATOM     12  H   ASN A   3     -16.199  22.594 -15.150  0.00  0.00    +0.150 HD
ATOM     13  O   ILE A   2     -15.567  20.416 -17.304  0.00  0.00    -0.273 OA
BRANCH  11  14
ATOM     14  CA  ASN A   3     -14.979  23.099 -16.870  0.00  0.00    +0.146 C 
BRANCH  14  15
ATOM     15  C   ASN A   3     -13.496  23.083 -16.514  0.00  0.00    +0.227 C 
ATOM     16  O   ASN A   3     -12.666  23.327 -17.384  0.00  0.00    -0.286 OA
ENDBRANCH  14  15
BRANCH  14  17
ATOM     17  CB  ASN A   3     -15.512  24.531 -16.786  0.00  0.00    +0.112 C 
BRANCH  17  18
ATOM     18  CG  ASN A   3     -16.886  24.674 -17.405  0.00  0.00    +0.222 C 
ATOM     19  OD1 ASN A   3     -17.811  25.336 -16.843  0.00  0.00    -0.275 OA
ATOM     20  ND2 ASN A   3     -17.044  24.072 -18.566  0.00  0.00    -0.329 N 
ATOM     21 HD21 ASN A   3     -16.256  23.540 -18.988  0.00  0.00    +0.145 HD
ATOM     22 HD22 ASN A   3     -17.957  24.128 -19.061  0.00  0.00    +0.145 HD
ENDBRANCH  17  18
ENDBRANCH  14  17
ENDBRANCH  11  14
ENDBRANCH   1  10
BRANCH   1  23
ATOM     23  CB  ILE A   2     -16.166  18.967 -14.652  0.00  0.00    +0.027 C 
ATOM     24  CG2 ILE A   2     -14.771  19.414 -14.156  0.00  0.00    +0.002 C 
BRANCH  23  25
ATOM     25  CG1 ILE A   2     -17.027  18.461 -13.495  0.00  0.00    +0.002 C 
ATOM     26  CD1 ILE A   2     -16.660  17.049 -12.956  0.00  0.00    +0.000 C 
ENDBRANCH  23  25
ENDBRANCH   1  23
TORSDOF 10
REMARK  Name = ../refined-set-2016/3jzg/3jzg_pocket.pdb
REMARK  133 active torsions:
REMARK  status: ('A' for Active; 'I' for Inactive)
REMARK    1  A    between atoms: _2  and  _3
REMARK    2  A    between atoms: _8  and  _10
REMARK    3  A    between atoms: _10  and  _11
REMARK    4  A    between atoms: _10  and  _13
REMARK    5  A    between atoms: _13  and  _14
REMARK    6  A    between atoms: _20  and  _22
REMARK    7  A    between atoms: _22  and  _23
REMARK    8  A    between atoms: _25  and  _27
REMARK    9  A    between atoms: _27  and  _28
REMARK   10  A    between atoms: _27  and  _30
REMARK   11  A    between atoms: _30  and  _31
REMARK   12  A    between atoms: _36  and  _38
REMARK   13  A    between atoms: _38  and  _39
REMARK   14  A    between atoms: _38  and  _41
REMARK   15  A    between atoms: _41  and  _42
REMARK   16  A    between atoms: _48  and  _50
REMARK   17  A    between atoms: _50  and  _51
REMARK   18  A    between atoms: _50  and  _53
REMARK   19  A    between atoms: _53  and  _54
REMARK   20  A    between atoms: _59  and  _60
REMARK   21  A    between atoms: _62  and  _64
REMARK   22  A    between atoms: _64  and  _65
REMARK   23  A    between atoms: _64  and  _67
REMARK   24  A    between atoms: _67  and  _68
REMARK   25  A    between atoms: _71  and  _73
REMARK   26  A    between atoms: _73  and  _74
REMARK   27  A    between atoms: _76  and  _78
REMARK   28  A    between atoms: _78  and  _79
REMARK   29  A    between atoms: _78  and  _81
REMARK   30  A    between atoms: _81  and  _82
REMARK   31  A    between atoms: _84  and  _86
REMARK   32  A    between atoms: _86  and  _87
REMARK   33  A    between atoms: _90  and  _92
REMARK   34  A    between atoms: _92  and  _93
REMARK   35  A    between atoms: _92  and  _95
REMARK   36  A    between atoms: _95  and  _96
REMARK   37  A    between atoms: _99  and  _101
REMARK   38  A    between atoms: _101  and  _102
REMARK   39  A    between atoms: _101  and  _104
REMARK   40  A    between atoms: _104  and  _105
REMARK   41  A    between atoms: _110  and  _112
REMARK   42  A    between atoms: _112  and  _113
REMARK   43  A    between atoms: _112  and  _115
REMARK   44  A    between atoms: _115  and  _116
REMARK   45  A    between atoms: _116  and  _117
REMARK   46  A    between atoms: _117  and  _118
REMARK   47  A    between atoms: _118  and  _119
REMARK   48  A    between atoms: _123  and  _125
REMARK   49  A    between atoms: _125  and  _126
REMARK   50  A    between atoms: _125  and  _128
REMARK   51  A    between atoms: _128  and  _129
REMARK   52  A    between atoms: _129  and  _130
REMARK   53  A    between atoms: _133  and  _135
REMARK   54  A    between atoms: _135  and  _136
REMARK   55  A    between atoms: _135  and  _138
REMARK   56  A    between atoms: _138  and  _139
REMARK   57  A    between atoms: _142  and  _144
REMARK   58  A    between atoms: _144  and  _145
REMARK   59  A    between atoms: _144  and  _147
REMARK   60  A    between atoms: _147  and  _148
REMARK   61  A    between atoms: _148  and  _149
REMARK   62  A    between atoms: _151  and  _153
REMARK   63  A    between atoms: _153  and  _154
REMARK   64  A    between atoms: _153  and  _156
REMARK   65  A    between atoms: _156  and  _157
REMARK   66  A    between atoms: _162  and  _164
REMARK   67  A    between atoms: _164  and  _165
REMARK   68  A    between atoms: _164  and  _167
REMARK   69  A    between atoms: _167  and  _168
REMARK   70  A    between atoms: _173  and  _175
REMARK   71  A    between atoms: _175  and  _176
REMARK   72  A    between atoms: _175  and  _178
REMARK   73  A    between atoms: _178  and  _179
REMARK   74  A    between atoms: _184  and  _185
REMARK   75  A    between atoms: _187  and  _189
REMARK   76  A    between atoms: _189  and  _190
REMARK   77  A    between atoms: _189  and  _192
REMARK   78  A    between atoms: _192  and  _193
REMARK   79  A    between atoms: _196  and  _198
REMARK   80  A    between atoms: _198  and  _199
REMARK   81  A    between atoms: _198  and  _201
REMARK   82  A    between atoms: _201  and  _202
REMARK   83  A    between atoms: _204  and  _206
REMARK   84  A    between atoms: _206  and  _207
REMARK   85  A    between atoms: _206  and  _209
REMARK   86  A    between atoms: _211  and  _213
REMARK   87  A    between atoms: _213  and  _214
REMARK   88  A    between atoms: _213  and  _216
REMARK   89  A    between atoms: _218  and  _220
REMARK   90  A    between atoms: _220  and  _221
REMARK   91  A    between atoms: _220  and  _223
REMARK   92  A    between atoms: _223  and  _224
REMARK   93  A    between atoms: _227  and  _229
REMARK   94  A    between atoms: _229  and  _230
REMARK   95  A    between atoms: _229  and  _232
REMARK   96  A    between atoms: _232  and  _233
REMARK   97  A    between atoms: _236  and  _238
REMARK   98  A    between atoms: _238  and  _239
REMARK   99  A    between atoms: _238  and  _241
REMARK  100  A    between atoms: _241  and  _242
REMARK  101  A    between atoms: _252  and  _254
REMARK  102  A    between atoms: _254  and  _255
REMARK  103  A    between atoms: _254  and  _257
REMARK  104  A    between atoms: _257  and  _258
REMARK  105  A    between atoms: _263  and  _264
REMARK  106  A    between atoms: _266  and  _268
REMARK  107  A    between atoms: _268  and  _269
REMARK  108  A    between atoms: _268  and  _271
REMARK  109  A    between atoms: _271  and  _272
REMARK  110  A    between atoms: _272  and  _273
REMARK  111  A    between atoms: _275  and  _277
REMARK  112  A    between atoms: _277  and  _278
REMARK  113  A    between atoms: _277  and  _280
REMARK  114  A    between atoms: _280  and  _281
REMARK  115  A    between atoms: _281  and  _282
REMARK  116  A    between atoms: _282  and  _283
REMARK  117  A    between atoms: _292  and  _294
REMARK  118  A    between atoms: _294  and  _295
REMARK  119  A    between atoms: _294  and  _297
REMARK  120  A    between atoms: _297  and  _298
REMARK  121  A    between atoms: _298  and  _299
REMARK  122  A    between atoms: _304  and  _306
REMARK  123  A    between atoms: _306  and  _307
REMARK  124  A    between atoms: _310  and  _312
REMARK  125  A    between atoms: _312  and  _313
REMARK  126  A    between atoms: _312  and  _315
REMARK  127  A    between atoms: _315  and  _316
REMARK  128  A    between atoms: _316  and  _317
REMARK  129  A    between atoms: _317  and  _318
REMARK  130  A    between atoms: _327  and  _329
REMARK  131  A    between atoms: _329  and  _330
REMARK  132  A    between atoms: _329  and  _332
REMARK  133  A    between atoms: _332  and  _333
REMARK                            x       y       z     vdW  Elec       q    Type
REMARK                         _______ _______ _______ _____ _____    ______ ____
ROOT
ATOM      1  CG  LYS A   1     -23.096  24.099 -17.052  0.00  0.00    -0.000 C 
ENDROOT
BRANCH   1   2
ATOM      2  CB  LYS A   1     -21.721  23.755 -16.448  0.00  0.00    +0.025 C 
BRANCH   2   3
ATOM      3  CA  LYS A   1     -21.351  24.521 -15.167  0.00  0.00    +0.133 C 
BRANCH   3   4
ATOM      4  N   LYS A   1     -20.298  23.834 -14.489  0.00  0.00    -0.239 NA
ATOM      5  H   LYS A   1     -19.982  22.921 -14.873  0.00  0.00    +0.142 HD
ENDBRANCH   3   4
BRANCH   3   6
ATOM      6  C   LYS A   1     -22.553  24.665 -14.216  0.00  0.00    +0.224 C 
ATOM      7  O   LYS A   1     -23.378  25.518 -14.423  0.00  0.00    -0.287 OA
ENDBRANCH   3   6
ENDBRANCH   2   3
ENDBRANCH   1   2
BRANCH   1   8
ATOM      8  CD  LYS A   1     -23.167  23.667 -18.499  0.00  0.00    -0.024 C 
BRANCH   8   9
ATOM      9  CE  LYS A   1     -24.541  23.973 -19.204  0.00  0.00    -0.086 C 
BRANCH   9  10
ATOM     10  NZ  LYS A   1     -24.376  23.570 -20.665  0.00  0.00    +0.380 N 
ATOM     11  HZ1 LYS A   1     -24.146  22.557 -20.720  0.00  0.00    -0.089 HD
ATOM     12  HZ2 LYS A   1     -23.607  24.125 -21.092  0.00  0.00    -0.089 HD
ATOM     13  HZ3 LYS A   1     -25.263  23.754 -21.176  0.00  0.00    -0.089 HD
ENDBRANCH   9  10
ENDBRANCH   8   9
ENDBRANCH   1   8
TORSDOF 7
REMARK  Name = ../refined-set-2016/3jzg/3jzg_pocket.pdb
REMARK  133 active torsions:
REMARK  status: ('A' for Active; 'I' for Inactive)
REMARK    1  A    between atoms: _2  and  _3
REMARK    2  A    between atoms: _8  and  _10
REMARK    3  A    between atoms: _10  and  _11
REMARK    4  A    between atoms: _10  and  _13
REMARK    5  A    between atoms: _13  and  _14
REMARK    6  A    between atoms: _20  and  _22
REMARK    7  A    between atoms: _22  and  _23
REMARK    8  A    between atoms: _25  and  _27
REMARK    9  A    between atoms: _27  and  _28
REMARK   10  A    between atoms: _27  and  _30
REMARK   11  A    between atoms: _30  and  _31
REMARK   12  A    between atoms: _36  and  _38
REMARK   13  A    between atoms: _38  and  _39
REMARK   14  A    between atoms: _38  and  _41
REMARK   15  A    between atoms: _41  and  _42
REMARK   16  A    between atoms: _48  and  _50
REMARK   17  A    between atoms: _50  and  _51
REMARK   18  A    between atoms: _50  and  _53
REMARK   19  A    between atoms: _53  and  _54
REMARK   20  A    between atoms: _59  and  _60
REMARK   21  A    between atoms: _62  and  _64
REMARK   22  A    between atoms: _64  and  _65
REMARK   23  A    between atoms: _64  and  _67
REMARK   24  A    between atoms: _67  and  _68
REMARK   25  A    between atoms: _71  and  _73
REMARK   26  A    between atoms: _73  and  _74
REMARK   27  A    between atoms: _76  and  _78
REMARK   28  A    between atoms: _78  and  _79
REMARK   29  A    between atoms: _78  and  _81
REMARK   30  A    between atoms: _81  and  _82
REMARK   31  A    between atoms: _84  and  _86
REMARK   32  A    between atoms: _86  and  _87
REMARK   33  A    between atoms: _90  and  _92
REMARK   34  A    between atoms: _92  and  _93
REMARK   35  A    between atoms: _92  and  _95
REMARK   36  A    between atoms: _95  and  _96
REMARK   37  A    between atoms: _99  and  _101
REMARK   38  A    between atoms: _101  and  _102
REMARK   39  A    between atoms: _101  and  _104
REMARK   40  A    between atoms: _104  and  _105
REMARK   41  A    between atoms: _110  and  _112
REMARK   42  A    between atoms: _112  and  _113
REMARK   43  A    between atoms: _112  and  _115
REMARK   44  A    between atoms: _115  and  _116
REMARK   45  A    between atoms: _116  and  _117
REMARK   46  A    between atoms: _117  and  _118
REMARK   47  A    between atoms: _118  and  _119
REMARK   48  A    between atoms: _123  and  _125
REMARK   49  A    between atoms: _125  and  _126
REMARK   50  A    between atoms: _125  and  _128
REMARK   51  A    between atoms: _128  and  _129
REMARK   52  A    between atoms: _129  and  _130
REMARK   53  A    between atoms: _133  and  _135
REMARK   54  A    between atoms: _135  and  _136
REMARK   55  A    between atoms: _135  and  _138
REMARK   56  A    between atoms: _138  and  _139
REMARK   57  A    between atoms: _142  and  _144
REMARK   58  A    between atoms: _144  and  _145
REMARK   59  A    between atoms: _144  and  _147
REMARK   60  A    between atoms: _147  and  _148
REMARK   61  A    between atoms: _148  and  _149
REMARK   62  A    between atoms: _151  and  _153
REMARK   63  A    between atoms: _153  and  _154
REMARK   64  A    between atoms: _153  and  _156
REMARK   65  A    between atoms: _156  and  _157
REMARK   66  A    between atoms: _162  and  _164
REMARK   67  A    between atoms: _164  and  _165
REMARK   68  A    between atoms: _164  and  _167
REMARK   69  A    between atoms: _167  and  _168
REMARK   70  A    between atoms: _173  and  _175
REMARK   71  A    between atoms: _175  and  _176
REMARK   72  A    between atoms: _175  and  _178
REMARK   73  A    between atoms: _178  and  _179
REMARK   74  A    between atoms: _184  and  _185
REMARK   75  A    between atoms: _187  and  _189
REMARK   76  A    between atoms: _189  and  _190
REMARK   77  A    between atoms: _189  and  _192
REMARK   78  A    between atoms: _192  and  _193
REMARK   79  A    between atoms: _196  and  _198
REMARK   80  A    between atoms: _198  and  _199
REMARK   81  A    between atoms: _198  and  _201
REMARK   82  A    between atoms: _201  and  _202
REMARK   83  A    between atoms: _204  and  _206
REMARK   84  A    between atoms: _206  and  _207
REMARK   85  A    between atoms: _206  and  _209
REMARK   86  A    between atoms: _211  and  _213
REMARK   87  A    between atoms: _213  and  _214
REMARK   88  A    between atoms: _213  and  _216
REMARK   89  A    between atoms: _218  and  _220
REMARK   90  A    between atoms: _220  and  _221
REMARK   91  A    between atoms: _220  and  _223
REMARK   92  A    between atoms: _223  and  _224
REMARK   93  A    between atoms: _227  and  _229
REMARK   94  A    between atoms: _229  and  _230
REMARK   95  A    between atoms: _229  and  _232
REMARK   96  A    between atoms: _232  and  _233
REMARK   97  A    between atoms: _236  and  _238
REMARK   98  A    between atoms: _238  and  _239
REMARK   99  A    between atoms: _238  and  _241
REMARK  100  A    between atoms: _241  and  _242
REMARK  101  A    between atoms: _252  and  _254
REMARK  102  A    between atoms: _254  and  _255
REMARK  103  A    between atoms: _254  and  _257
REMARK  104  A    between atoms: _257  and  _258
REMARK  105  A    between atoms: _263  and  _264
REMARK  106  A    between atoms: _266  and  _268
REMARK  107  A    between atoms: _268  and  _269
REMARK  108  A    between atoms: _268  and  _271
REMARK  109  A    between atoms: _271  and  _272
REMARK  110  A    between atoms: _272  and  _273
REMARK  111  A    between atoms: _275  and  _277
REMARK  112  A    between atoms: _277  and  _278
REMARK  113  A    between atoms: _277  and  _280
REMARK  114  A    between atoms: _280  and  _281
REMARK  115  A    between atoms: _281  and  _282
REMARK  116  A    between atoms: _282  and  _283
REMARK  117  A    between atoms: _292  and  _294
REMARK  118  A    between atoms: _294  and  _295
REMARK  119  A    between atoms: _294  and  _297
REMARK  120  A    between atoms: _297  and  _298
REMARK  121  A    between atoms: _298  and  _299
REMARK  122  A    between atoms: _304  and  _306
REMARK  123  A    between atoms: _306  and  _307
REMARK  124  A    between atoms: _310  and  _312
REMARK  125  A    between atoms: _312  and  _313
REMARK  126  A    between atoms: _312  and  _315
REMARK  127  A    between atoms: _315  and  _316
REMARK  128  A    between atoms: _316  and  _317
REMARK  129  A    between atoms: _317  and  _318
REMARK  130  A    between atoms: _327  and  _329
REMARK  131  A    between atoms: _329  and  _330
REMARK  132  A    between atoms: _329  and  _332
REMARK  133  A    between atoms: _332  and  _333
REMARK                            x       y       z     vdW  Elec       q    Type
REMARK                         _______ _______ _______ _____ _____    ______ ____
ROOT
ATOM      1  CA  GLU A   1     -20.892  28.517 -14.820  0.00  0.00    +0.134 C 
ENDROOT
BRANCH   1   2
ATOM      2  N   GLU A   1     -21.929  29.572 -14.776  0.00  0.00    -0.239 NA
ATOM      3  H   GLU A   1     -22.426  29.823 -15.655  0.00  0.00    +0.142 HD
ENDBRANCH   1   2
BRANCH   1   4
ATOM      4  C   GLU A   1     -19.593  28.971 -14.237  0.00  0.00    +0.224 C 
ATOM      5  O   GLU A   1     -19.129  30.091 -14.534  0.00  0.00    -0.287 OA
ENDBRANCH   1   4
BRANCH   1   6
ATOM      6  CB  GLU A   1     -20.589  28.120 -16.227  0.00  0.00    +0.037 C 
BRANCH   6   7
ATOM      7  CG  GLU A   1     -21.798  27.669 -17.083  0.00  0.00    +0.116 C 
BRANCH   7   8
ATOM      8  CD  GLU A   1     -21.363  26.825 -18.291  0.00  0.00    +0.365 C 
ATOM      9  OE2 GLU A   1     -20.252  26.196 -18.272  0.00  0.00    -0.246 OA
ATOM     10  OE1 GLU A   1     -22.126  26.784 -19.261  0.00  0.00    -0.246 OA
ENDBRANCH   7   8
ENDBRANCH   6   7
ENDBRANCH   1   6
TORSDOF 5
REMARK  Name = ../refined-set-2016/3jzg/3jzg_pocket.pdb
REMARK  133 active torsions:
REMARK  status: ('A' for Active; 'I' for Inactive)
REMARK    1  A    between atoms: _2  and  _3
REMARK    2  A    between atoms: _8  and  _10
REMARK    3  A    between atoms: _10  and  _11
REMARK    4  A    between atoms: _10  and  _13
REMARK    5  A    between atoms: _13  and  _14
REMARK    6  A    between atoms: _20  and  _22
REMARK    7  A    between atoms: _22  and  _23
REMARK    8  A    between atoms: _25  and  _27
REMARK    9  A    between atoms: _27  and  _28
REMARK   10  A    between atoms: _27  and  _30
REMARK   11  A    between atoms: _30  and  _31
REMARK   12  A    between atoms: _36  and  _38
REMARK   13  A    between atoms: _38  and  _39
REMARK   14  A    between atoms: _38  and  _41
REMARK   15  A    between atoms: _41  and  _42
REMARK   16  A    between atoms: _48  and  _50
REMARK   17  A    between atoms: _50  and  _51
REMARK   18  A    between atoms: _50  and  _53
REMARK   19  A    between atoms: _53  and  _54
REMARK   20  A    between atoms: _59  and  _60
REMARK   21  A    between atoms: _62  and  _64
REMARK   22  A    between atoms: _64  and  _65
REMARK   23  A    between atoms: _64  and  _67
REMARK   24  A    between atoms: _67  and  _68
REMARK   25  A    between atoms: _71  and  _73
REMARK   26  A    between atoms: _73  and  _74
REMARK   27  A    between atoms: _76  and  _78
REMARK   28  A    between atoms: _78  and  _79
REMARK   29  A    between atoms: _78  and  _81
REMARK   30  A    between atoms: _81  and  _82
REMARK   31  A    between atoms: _84  and  _86
REMARK   32  A    between atoms: _86  and  _87
REMARK   33  A    between atoms: _90  and  _92
REMARK   34  A    between atoms: _92  and  _93
REMARK   35  A    between atoms: _92  and  _95
REMARK   36  A    between atoms: _95  and  _96
REMARK   37  A    between atoms: _99  and  _101
REMARK   38  A    between atoms: _101  and  _102
REMARK   39  A    between atoms: _101  and  _104
REMARK   40  A    between atoms: _104  and  _105
REMARK   41  A    between atoms: _110  and  _112
REMARK   42  A    between atoms: _112  and  _113
REMARK   43  A    between atoms: _112  and  _115
REMARK   44  A    between atoms: _115  and  _116
REMARK   45  A    between atoms: _116  and  _117
REMARK   46  A    between atoms: _117  and  _118
REMARK   47  A    between atoms: _118  and  _119
REMARK   48  A    between atoms: _123  and  _125
REMARK   49  A    between atoms: _125  and  _126
REMARK   50  A    between atoms: _125  and  _128
REMARK   51  A    between atoms: _128  and  _129
REMARK   52  A    between atoms: _129  and  _130
REMARK   53  A    between atoms: _133  and  _135
REMARK   54  A    between atoms: _135  and  _136
REMARK   55  A    between atoms: _135  and  _138
REMARK   56  A    between atoms: _138  and  _139
REMARK   57  A    between atoms: _142  and  _144
REMARK   58  A    between atoms: _144  and  _145
REMARK   59  A    between atoms: _144  and  _147
REMARK   60  A    between atoms: _147  and  _148
REMARK   61  A    between atoms: _148  and  _149
REMARK   62  A    between atoms: _151  and  _153
REMARK   63  A    between atoms: _153  and  _154
REMARK   64  A    between atoms: _153  and  _156
REMARK   65  A    between atoms: _156  and  _157
REMARK   66  A    between atoms: _162  and  _164
REMARK   67  A    between atoms: _164  and  _165
REMARK   68  A    between atoms: _164  and  _167
REMARK   69  A    between atoms: _167  and  _168
REMARK   70  A    between atoms: _173  and  _175
REMARK   71  A    between atoms: _175  and  _176
REMARK   72  A    between atoms: _175  and  _178
REMARK   73  A    between atoms: _178  and  _179
REMARK   74  A    between atoms: _184  and  _185
REMARK   75  A    between atoms: _187  and  _189
REMARK   76  A    between atoms: _189  and  _190
REMARK   77  A    between atoms: _189  and  _192
REMARK   78  A    between atoms: _192  and  _193
REMARK   79  A    between atoms: _196  and  _198
REMARK   80  A    between atoms: _198  and  _199
REMARK   81  A    between atoms: _198  and  _201
REMARK   82  A    between atoms: _201  and  _202
REMARK   83  A    between atoms: _204  and  _206
REMARK   84  A    between atoms: _206  and  _207
REMARK   85  A    between atoms: _206  and  _209
REMARK   86  A    between atoms: _211  and  _213
REMARK   87  A    between atoms: _213  and  _214
REMARK   88  A    between atoms: _213  and  _216
REMARK   89  A    between atoms: _218  and  _220
REMARK   90  A    between atoms: _220  and  _221
REMARK   91  A    between atoms: _220  and  _223
REMARK   92  A    between atoms: _223  and  _224
REMARK   93  A    between atoms: _227  and  _229
REMARK   94  A    between atoms: _229  and  _230
REMARK   95  A    between atoms: _229  and  _232
REMARK   96  A    between atoms: _232  and  _233
REMARK   97  A    between atoms: _236  and  _238
REMARK   98  A    between atoms: _238  and  _239
REMARK   99  A    between atoms: _238  and  _241
REMARK  100  A    between atoms: _241  and  _242
REMARK  101  A    between atoms: _252  and  _254
REMARK  102  A    between atoms: _254  and  _255
REMARK  103  A    between atoms: _254  and  _257
REMARK  104  A    between atoms: _257  and  _258
REMARK  105  A    between atoms: _263  and  _264
REMARK  106  A    between atoms: _266  and  _268
REMARK  107  A    between atoms: _268  and  _269
REMARK  108  A    between atoms: _268  and  _271
REMARK  109  A    between atoms: _271  and  _272
REMARK  110  A    between atoms: _272  and  _273
REMARK  111  A    between atoms: _275  and  _277
REMARK  112  A    between atoms: _277  and  _278
REMARK  113  A    between atoms: _277  and  _280
REMARK  114  A    between atoms: _280  and  _281
REMARK  115  A    between atoms: _281  and  _282
REMARK  116  A    between atoms: _282  and  _283
REMARK  117  A    between atoms: _292  and  _294
REMARK  118  A    between atoms: _294  and  _295
REMARK  119  A    between atoms: _294  and  _297
REMARK  120  A    between atoms: _297  and  _298
REMARK  121  A    between atoms: _298  and  _299
REMARK  122  A    between atoms: _304  and  _306
REMARK  123  A    between atoms: _306  and  _307
REMARK  124  A    between atoms: _310  and  _312
REMARK  125  A    between atoms: _312  and  _313
REMARK  126  A    between atoms: _312  and  _315
REMARK  127  A    between atoms: _315  and  _316
REMARK  128  A    between atoms: _316  and  _317
REMARK  129  A    between atoms: _317  and  _318
REMARK  130  A    between atoms: _327  and  _329
REMARK  131  A    between atoms: _329  and  _330
REMARK  132  A    between atoms: _329  and  _332
REMARK  133  A    between atoms: _332  and  _333
REMARK                            x       y       z     vdW  Elec       q    Type
REMARK                         _______ _______ _______ _____ _____    ______ ____
ROOT
ATOM      1  CA  LEU A   1     -14.964  28.300 -15.779  0.00  0.00    +0.133 C 
ENDROOT
BRANCH   1   2
ATOM      2  N   LEU A   1     -15.754  28.674 -14.602  0.00  0.00    -0.239 NA
ATOM      3  H   LEU A   1     -15.581  29.595 -14.150  0.00  0.00    +0.142 HD
ENDBRANCH   1   2
BRANCH   1   4
ATOM      4  C   LEU A   1     -13.530  27.928 -15.432  0.00  0.00    +0.224 C 
ATOM      5  O   LEU A   1     -12.963  27.051 -16.105  0.00  0.00    -0.287 OA
ENDBRANCH   1   4
BRANCH   1   6
ATOM      6  CB  LEU A   1     -14.947  29.420 -16.854  0.00  0.00    +0.025 C 
BRANCH   6   7
ATOM      7  CG  LEU A   1     -16.301  29.723 -17.556  0.00  0.00    +0.002 C 
ATOM      8  CD2 LEU A   1     -16.832  28.535 -18.342  0.00  0.00    +0.000 C 
ATOM      9  CD1 LEU A   1     -16.144  30.964 -18.436  0.00  0.00    +0.000 C 
ENDBRANCH   6   7
ENDBRANCH   1   6
TORSDOF 4
REMARK  Name = ../refined-set-2016/3jzg/3jzg_pocket.pdb
REMARK  133 active torsions:
REMARK  status: ('A' for Active; 'I' for Inactive)
REMARK    1  A    between atoms: _2  and  _3
REMARK    2  A    between atoms: _8  and  _10
REMARK    3  A    between atoms: _10  and  _11
REMARK    4  A    between atoms: _10  and  _13
REMARK    5  A    between atoms: _13  and  _14
REMARK    6  A    between atoms: _20  and  _22
REMARK    7  A    between atoms: _22  and  _23
REMARK    8  A    between atoms: _25  and  _27
REMARK    9  A    between atoms: _27  and  _28
REMARK   10  A    between atoms: _27  and  _30
REMARK   11  A    between atoms: _30  and  _31
REMARK   12  A    between atoms: _36  and  _38
REMARK   13  A    between atoms: _38  and  _39
REMARK   14  A    between atoms: _38  and  _41
REMARK   15  A    between atoms: _41  and  _42
REMARK   16  A    between atoms: _48  and  _50
REMARK   17  A    between atoms: _50  and  _51
REMARK   18  A    between atoms: _50  and  _53
REMARK   19  A    between atoms: _53  and  _54
REMARK   20  A    between atoms: _59  and  _60
REMARK   21  A    between atoms: _62  and  _64
REMARK   22  A    between atoms: _64  and  _65
REMARK   23  A    between atoms: _64  and  _67
REMARK   24  A    between atoms: _67  and  _68
REMARK   25  A    between atoms: _71  and  _73
REMARK   26  A    between atoms: _73  and  _74
REMARK   27  A    between atoms: _76  and  _78
REMARK   28  A    between atoms: _78  and  _79
REMARK   29  A    between atoms: _78  and  _81
REMARK   30  A    between atoms: _81  and  _82
REMARK   31  A    between atoms: _84  and  _86
REMARK   32  A    between atoms: _86  and  _87
REMARK   33  A    between atoms: _90  and  _92
REMARK   34  A    between atoms: _92  and  _93
REMARK   35  A    between atoms: _92  and  _95
REMARK   36  A    between atoms: _95  and  _96
REMARK   37  A    between atoms: _99  and  _101
REMARK   38  A    between atoms: _101  and  _102
REMARK   39  A    between atoms: _101  and  _104
REMARK   40  A    between atoms: _104  and  _105
REMARK   41  A    between atoms: _110  and  _112
REMARK   42  A    between atoms: _112  and  _113
REMARK   43  A    between atoms: _112  and  _115
REMARK   44  A    between atoms: _115  and  _116
REMARK   45  A    between atoms: _116  and  _117
REMARK   46  A    between atoms: _117  and  _118
REMARK   47  A    between atoms: _118  and  _119
REMARK   48  A    between atoms: _123  and  _125
REMARK   49  A    between atoms: _125  and  _126
REMARK   50  A    between atoms: _125  and  _128
REMARK   51  A    between atoms: _128  and  _129
REMARK   52  A    between atoms: _129  and  _130
REMARK   53  A    between atoms: _133  and  _135
REMARK   54  A    between atoms: _135  and  _136
REMARK   55  A    between atoms: _135  and  _138
REMARK   56  A    between atoms: _138  and  _139
REMARK   57  A    between atoms: _142  and  _144
REMARK   58  A    between atoms: _144  and  _145
REMARK   59  A    between atoms: _144  and  _147
REMARK   60  A    between atoms: _147  and  _148
REMARK   61  A    between atoms: _148  and  _149
REMARK   62  A    between atoms: _151  and  _153
REMARK   63  A    between atoms: _153  and  _154
REMARK   64  A    between atoms: _153  and  _156
REMARK   65  A    between atoms: _156  and  _157
REMARK   66  A    between atoms: _162  and  _164
REMARK   67  A    between atoms: _164  and  _165
REMARK   68  A    between atoms: _164  and  _167
REMARK   69  A    between atoms: _167  and  _168
REMARK   70  A    between atoms: _173  and  _175
REMARK   71  A    between atoms: _175  and  _176
REMARK   72  A    between atoms: _175  and  _178
REMARK   73  A    between atoms: _178  and  _179
REMARK   74  A    between atoms: _184  and  _185
REMARK   75  A    between atoms: _187  and  _189
REMARK   76  A    between atoms: _189  and  _190
REMARK   77  A    between atoms: _189  and  _192
REMARK   78  A    between atoms: _192  and  _193
REMARK   79  A    between atoms: _196  and  _198
REMARK   80  A    between atoms: _198  and  _199
REMARK   81  A    between atoms: _198  and  _201
REMARK   82  A    between atoms: _201  and  _202
REMARK   83  A    between atoms: _204  and  _206
REMARK   84  A    between atoms: _206  and  _207
REMARK   85  A    between atoms: _206  and  _209
REMARK   86  A    between atoms: _211  and  _213
REMARK   87  A    between atoms: _213  and  _214
REMARK   88  A    between atoms: _213  and  _216
REMARK   89  A    between atoms: _218  and  _220
REMARK   90  A    between atoms: _220  and  _221
REMARK   91  A    between atoms: _220  and  _223
REMARK   92  A    between atoms: _223  and  _224
REMARK   93  A    between atoms: _227  and  _229
REMARK   94  A    between atoms: _229  and  _230
REMARK   95  A    between atoms: _229  and  _232
REMARK   96  A    between atoms: _232  and  _233
REMARK   97  A    between atoms: _236  and  _238
REMARK   98  A    between atoms: _238  and  _239
REMARK   99  A    between atoms: _238  and  _241
REMARK  100  A    between atoms: _241  and  _242
REMARK  101  A    between atoms: _252  and  _254
REMARK  102  A    between atoms: _254  and  _255
REMARK  103  A    between atoms: _254  and  _257
REMARK  104  A    between atoms: _257  and  _258
REMARK  105  A    between atoms: _263  and  _264
REMARK  106  A    between atoms: _266  and  _268
REMARK  107  A    between atoms: _268  and  _269
REMARK  108  A    between atoms: _268  and  _271
REMARK  109  A    between atoms: _271  and  _272
REMARK  110  A    between atoms: _272  and  _273
REMARK  111  A    between atoms: _275  and  _277
REMARK  112  A    between atoms: _277  and  _278
REMARK  113  A    between atoms: _277  and  _280
REMARK  114  A    between atoms: _280  and  _281
REMARK  115  A    between atoms: _281  and  _282
REMARK  116  A    between atoms: _282  and  _283
REMARK  117  A    between atoms: _292  and  _294
REMARK  118  A    between atoms: _294  and  _295
REMARK  119  A    between atoms: _294  and  _297
REMARK  120  A    between atoms: _297  and  _298
REMARK  121  A    between atoms: _298  and  _299
REMARK  122  A    between atoms: _304  and  _306
REMARK  123  A    between atoms: _306  and  _307
REMARK  124  A    between atoms: _310  and  _312
REMARK  125  A    between atoms: _312  and  _313
REMARK  126  A    between atoms: _312  and  _315
REMARK  127  A    between atoms: _315  and  _316
REMARK  128  A    between atoms: _316  and  _317
REMARK  129  A    between atoms: _317  and  _318
REMARK  130  A    between atoms: _327  and  _329
REMARK  131  A    between atoms: _329  and  _330
REMARK  132  A    between atoms: _329  and  _332
REMARK  133  A    between atoms: _332  and  _333
REMARK                            x       y       z     vdW  Elec       q    Type
REMARK                         _______ _______ _______ _____ _____    ______ ____
ROOT
ATOM      1  CA  MET A   1     -19.581  33.470 -16.558  0.00  0.00    +0.134 C 
ENDROOT
BRANCH   1   2
ATOM      2  N   MET A   1     -18.711  32.816 -15.625  0.00  0.00    -0.239 NA
ATOM      3  H   MET A   1     -18.971  31.866 -15.292  0.00  0.00    +0.142 HD
ENDBRANCH   1   2
BRANCH   1   4
ATOM      4  C   MET A   1     -20.355  34.600 -15.936  0.00  0.00    +0.224 C 
ATOM      5  O   MET A   1     -20.905  35.414 -16.673  0.00  0.00    -0.287 OA
ENDBRANCH   1   4
BRANCH   1   6
ATOM      6  CB  MET A   1     -20.579  32.477 -17.167  0.00  0.00    +0.037 C 
BRANCH   6   7
ATOM      7  CG  MET A   1     -20.053  31.728 -18.405  0.00  0.00    +0.059 C 
BRANCH   7   8
ATOM      8  SD  MET A   1     -21.309  30.611 -19.105  0.00  0.00    -0.139 S 
ATOM      9  CE  MET A   1     -20.343  29.877 -20.344  0.00  0.00    +0.069 C 
ENDBRANCH   7   8
ENDBRANCH   6   7
ENDBRANCH   1   6
TORSDOF 5
REMARK  Name = ../refined-set-2016/3jzg/3jzg_pocket.pdb
REMARK  133 active torsions:
REMARK  status: ('A' for Active; 'I' for Inactive)
REMARK    1  A    between atoms: _2  and  _3
REMARK    2  A    between atoms: _8  and  _10
REMARK    3  A    between atoms: _10  and  _11
REMARK    4  A    between atoms: _10  and  _13
REMARK    5  A    between atoms: _13  and  _14
REMARK    6  A    between atoms: _20  and  _22
REMARK    7  A    between atoms: _22  and  _23
REMARK    8  A    between atoms: _25  and  _27
REMARK    9  A    between atoms: _27  and  _28
REMARK   10  A    between atoms: _27  and  _30
REMARK   11  A    between atoms: _30  and  _31
REMARK   12  A    between atoms: _36  and  _38
REMARK   13  A    between atoms: _38  and  _39
REMARK   14  A    between atoms: _38  and  _41
REMARK   15  A    between atoms: _41  and  _42
REMARK   16  A    between atoms: _48  and  _50
REMARK   17  A    between atoms: _50  and  _51
REMARK   18  A    between atoms: _50  and  _53
REMARK   19  A    between atoms: _53  and  _54
REMARK   20  A    between atoms: _59  and  _60
REMARK   21  A    between atoms: _62  and  _64
REMARK   22  A    between atoms: _64  and  _65
REMARK   23  A    between atoms: _64  and  _67
REMARK   24  A    between atoms: _67  and  _68
REMARK   25  A    between atoms: _71  and  _73
REMARK   26  A    between atoms: _73  and  _74
REMARK   27  A    between atoms: _76  and  _78
REMARK   28  A    between atoms: _78  and  _79
REMARK   29  A    between atoms: _78  and  _81
REMARK   30  A    between atoms: _81  and  _82
REMARK   31  A    between atoms: _84  and  _86
REMARK   32  A    between atoms: _86  and  _87
REMARK   33  A    between atoms: _90  and  _92
REMARK   34  A    between atoms: _92  and  _93
REMARK   35  A    between atoms: _92  and  _95
REMARK   36  A    between atoms: _95  and  _96
REMARK   37  A    between atoms: _99  and  _101
REMARK   38  A    between atoms: _101  and  _102
REMARK   39  A    between atoms: _101  and  _104
REMARK   40  A    between atoms: _104  and  _105
REMARK   41  A    between atoms: _110  and  _112
REMARK   42  A    between atoms: _112  and  _113
REMARK   43  A    between atoms: _112  and  _115
REMARK   44  A    between atoms: _115  and  _116
REMARK   45  A    between atoms: _116  and  _117
REMARK   46  A    between atoms: _117  and  _118
REMARK   47  A    between atoms: _118  and  _119
REMARK   48  A    between atoms: _123  and  _125
REMARK   49  A    between atoms: _125  and  _126
REMARK   50  A    between atoms: _125  and  _128
REMARK   51  A    between atoms: _128  and  _129
REMARK   52  A    between atoms: _129  and  _130
REMARK   53  A    between atoms: _133  and  _135
REMARK   54  A    between atoms: _135  and  _136
REMARK   55  A    between atoms: _135  and  _138
REMARK   56  A    between atoms: _138  and  _139
REMARK   57  A    between atoms: _142  and  _144
REMARK   58  A    between atoms: _144  and  _145
REMARK   59  A    between atoms: _144  and  _147
REMARK   60  A    between atoms: _147  and  _148
REMARK   61  A    between atoms: _148  and  _149
REMARK   62  A    between atoms: _151  and  _153
REMARK   63  A    between atoms: _153  and  _154
REMARK   64  A    between atoms: _153  and  _156
REMARK   65  A    between atoms: _156  and  _157
REMARK   66  A    between atoms: _162  and  _164
REMARK   67  A    between atoms: _164  and  _165
REMARK   68  A    between atoms: _164  and  _167
REMARK   69  A    between atoms: _167  and  _168
REMARK   70  A    between atoms: _173  and  _175
REMARK   71  A    between atoms: _175  and  _176
REMARK   72  A    between atoms: _175  and  _178
REMARK   73  A    between atoms: _178  and  _179
REMARK   74  A    between atoms: _184  and  _185
REMARK   75  A    between atoms: _187  and  _189
REMARK   76  A    between atoms: _189  and  _190
REMARK   77  A    between atoms: _189  and  _192
REMARK   78  A    between atoms: _192  and  _193
REMARK   79  A    between atoms: _196  and  _198
REMARK   80  A    between atoms: _198  and  _199
REMARK   81  A    between atoms: _198  and  _201
REMARK   82  A    between atoms: _201  and  _202
REMARK   83  A    between atoms: _204  and  _206
REMARK   84  A    between atoms: _206  and  _207
REMARK   85  A    between atoms: _206  and  _209
REMARK   86  A    between atoms: _211  and  _213
REMARK   87  A    between atoms: _213  and  _214
REMARK   88  A    between atoms: _213  and  _216
REMARK   89  A    between atoms: _218  and  _220
REMARK   90  A    between atoms: _220  and  _221
REMARK   91  A    between atoms: _220  and  _223
REMARK   92  A    between atoms: _223  and  _224
REMARK   93  A    between atoms: _227  and  _229
REMARK   94  A    between atoms: _229  and  _230
REMARK   95  A    between atoms: _229  and  _232
REMARK   96  A    between atoms: _232  and  _233
REMARK   97  A    between atoms: _236  and  _238
REMARK   98  A    between atoms: _238  and  _239
REMARK   99  A    between atoms: _238  and  _241
REMARK  100  A    between atoms: _241  and  _242
REMARK  101  A    between atoms: _252  and  _254
REMARK  102  A    between atoms: _254  and  _255
REMARK  103  A    between atoms: _254  and  _257
REMARK  104  A    between atoms: _257  and  _258
REMARK  105  A    between atoms: _263  and  _264
REMARK  106  A    between atoms: _266  and  _268
REMARK  107  A    between atoms: _268  and  _269
REMARK  108  A    between atoms: _268  and  _271
REMARK  109  A    between atoms: _271  and  _272
REMARK  110  A    between atoms: _272  and  _273
REMARK  111  A    between atoms: _275  and  _277
REMARK  112  A    between atoms: _277  and  _278
REMARK  113  A    between atoms: _277  and  _280
REMARK  114  A    between atoms: _280  and  _281
REMARK  115  A    between atoms: _281  and  _282
REMARK  116  A    between atoms: _282  and  _283
REMARK  117  A    between atoms: _292  and  _294
REMARK  118  A    between atoms: _294  and  _295
REMARK  119  A    between atoms: _294  and  _297
REMARK  120  A    between atoms: _297  and  _298
REMARK  121  A    between atoms: _298  and  _299
REMARK  122  A    between atoms: _304  and  _306
REMARK  123  A    between atoms: _306  and  _307
REMARK  124  A    between atoms: _310  and  _312
REMARK  125  A    between atoms: _312  and  _313
REMARK  126  A    between atoms: _312  and  _315
REMARK  127  A    between atoms: _315  and  _316
REMARK  128  A    between atoms: _316  and  _317
REMARK  129  A    between atoms: _317  and  _318
REMARK  130  A    between atoms: _327  and  _329
REMARK  131  A    between atoms: _329  and  _330
REMARK  132  A    between atoms: _329  and  _332
REMARK  133  A    between atoms: _332  and  _333
REMARK                            x       y       z     vdW  Elec       q    Type
REMARK                         _______ _______ _______ _____ _____    ______ ____
ROOT
ATOM      1  CB  HIS A   1     -18.711  39.476 -15.005  0.00  0.00    +0.072 C 
ENDROOT
BRANCH   1   2
ATOM      2  CG  HIS A   1     -19.475  39.552 -16.291  0.00  0.00    +0.082 A 
ATOM      3  ND1 HIS A   1     -19.818  40.773 -16.867  0.00  0.00    -0.227 NA
ATOM      4  CE1 HIS A   1     -20.500  40.541 -17.979  0.00  0.00    +0.199 A 
ATOM      5  NE2 HIS A   1     -20.596  39.226 -18.155  0.00  0.00    -0.221 NA
ATOM      6  CD2 HIS A   1     -20.000  38.581 -17.095  0.00  0.00    +0.115 A 
ENDBRANCH   1   2
BRANCH   1   7
ATOM      7  CA  HIS A   1     -18.001  38.121 -14.723  0.00  0.00    +0.139 C 
BRANCH   7   8
ATOM      8  N   HIS A   1     -18.963  36.993 -14.639  0.00  0.00    -0.239 NA
ATOM      9  H   HIS A   1     -18.732  36.107 -15.132  0.00  0.00    +0.142 HD
ENDBRANCH   7   8
BRANCH   7  10
ATOM     10  C   HIS A   1     -17.208  38.316 -13.438  0.00  0.00    +0.224 C 
ATOM     11  O   HIS A   1     -16.300  39.132 -13.367  0.00  0.00    -0.287 OA
ENDBRANCH   7  10
ENDBRANCH   1   7
TORSDOF 4
REMARK  Name = ../refined-set-2016/3jzg/3jzg_pocket.pdb
REMARK  133 active torsions:
REMARK  status: ('A' for Active; 'I' for Inactive)
REMARK    1  A    between atoms: _2  and  _3
REMARK    2  A    between atoms: _8  and  _10
REMARK    3  A    between atoms: _10  and  _11
REMARK    4  A    between atoms: _10  and  _13
REMARK    5  A    between atoms: _13  and  _14
REMARK    6  A    between atoms: _20  and  _22
REMARK    7  A    between atoms: _22  and  _23
REMARK    8  A    between atoms: _25  and  _27
REMARK    9  A    between atoms: _27  and  _28
REMARK   10  A    between atoms: _27  and  _30
REMARK   11  A    between atoms: _30  and  _31
REMARK   12  A    between atoms: _36  and  _38
REMARK   13  A    between atoms: _38  and  _39
REMARK   14  A    between atoms: _38  and  _41
REMARK   15  A    between atoms: _41  and  _42
REMARK   16  A    between atoms: _48  and  _50
REMARK   17  A    between atoms: _50  and  _51
REMARK   18  A    between atoms: _50  and  _53
REMARK   19  A    between atoms: _53  and  _54
REMARK   20  A    between atoms: _59  and  _60
REMARK   21  A    between atoms: _62  and  _64
REMARK   22  A    between atoms: _64  and  _65
REMARK   23  A    between atoms: _64  and  _67
REMARK   24  A    between atoms: _67  and  _68
REMARK   25  A    between atoms: _71  and  _73
REMARK   26  A    between atoms: _73  and  _74
REMARK   27  A    between atoms: _76  and  _78
REMARK   28  A    between atoms: _78  and  _79
REMARK   29  A    between atoms: _78  and  _81
REMARK   30  A    between atoms: _81  and  _82
REMARK   31  A    between atoms: _84  and  _86
REMARK   32  A    between atoms: _86  and  _87
REMARK   33  A    between atoms: _90  and  _92
REMARK   34  A    between atoms: _92  and  _93
REMARK   35  A    between atoms: _92  and  _95
REMARK   36  A    between atoms: _95  and  _96
REMARK   37  A    between atoms: _99  and  _101
REMARK   38  A    between atoms: _101  and  _102
REMARK   39  A    between atoms: _101  and  _104
REMARK   40  A    between atoms: _104  and  _105
REMARK   41  A    between atoms: _110  and  _112
REMARK   42  A    between atoms: _112  and  _113
REMARK   43  A    between atoms: _112  and  _115
REMARK   44  A    between atoms: _115  and  _116
REMARK   45  A    between atoms: _116  and  _117
REMARK   46  A    between atoms: _117  and  _118
REMARK   47  A    between atoms: _118  and  _119
REMARK   48  A    between atoms: _123  and  _125
REMARK   49  A    between atoms: _125  and  _126
REMARK   50  A    between atoms: _125  and  _128
REMARK   51  A    between atoms: _128  and  _129
REMARK   52  A    between atoms: _129  and  _130
REMARK   53  A    between atoms: _133  and  _135
REMARK   54  A    between atoms: _135  and  _136
REMARK   55  A    between atoms: _135  and  _138
REMARK   56  A    between atoms: _138  and  _139
REMARK   57  A    between atoms: _142  and  _144
REMARK   58  A    between atoms: _144  and  _145
REMARK   59  A    between atoms: _144  and  _147
REMARK   60  A    between atoms: _147  and  _148
REMARK   61  A    between atoms: _148  and  _149
REMARK   62  A    between atoms: _151  and  _153
REMARK   63  A    between atoms: _153  and  _154
REMARK   64  A    between atoms: _153  and  _156
REMARK   65  A    between atoms: _156  and  _157
REMARK   66  A    between atoms: _162  and  _164
REMARK   67  A    between atoms: _164  and  _165
REMARK   68  A    between atoms: _164  and  _167
REMARK   69  A    between atoms: _167  and  _168
REMARK   70  A    between atoms: _173  and  _175
REMARK   71  A    between atoms: _175  and  _176
REMARK   72  A    between atoms: _175  and  _178
REMARK   73  A    between atoms: _178  and  _179
REMARK   74  A    between atoms: _184  and  _185
REMARK   75  A    between atoms: _187  and  _189
REMARK   76  A    between atoms: _189  and  _190
REMARK   77  A    between atoms: _189  and  _192
REMARK   78  A    between atoms: _192  and  _193
REMARK   79  A    between atoms: _196  and  _198
REMARK   80  A    between atoms: _198  and  _199
REMARK   81  A    between atoms: _198  and  _201
REMARK   82  A    between atoms: _201  and  _202
REMARK   83  A    between atoms: _204  and  _206
REMARK   84  A    between atoms: _206  and  _207
REMARK   85  A    between atoms: _206  and  _209
REMARK   86  A    between atoms: _211  and  _213
REMARK   87  A    between atoms: _213  and  _214
REMARK   88  A    between atoms: _213  and  _216
REMARK   89  A    between atoms: _218  and  _220
REMARK   90  A    between atoms: _220  and  _221
REMARK   91  A    between atoms: _220  and  _223
REMARK   92  A    between atoms: _223  and  _224
REMARK   93  A    between atoms: _227  and  _229
REMARK   94  A    between atoms: _229  and  _230
REMARK   95  A    between atoms: _229  and  _232
REMARK   96  A    between atoms: _232  and  _233
REMARK   97  A    between atoms: _236  and  _238
REMARK   98  A    between atoms: _238  and  _239
REMARK   99  A    between atoms: _238  and  _241
REMARK  100  A    between atoms: _241  and  _242
REMARK  101  A    between atoms: _252  and  _254
REMARK  102  A    between atoms: _254  and  _255
REMARK  103  A    between atoms: _254  and  _257
REMARK  104  A    between atoms: _257  and  _258
REMARK  105  A    between atoms: _263  and  _264
REMARK  106  A    between atoms: _266  and  _268
REMARK  107  A    between atoms: _268  and  _269
REMARK  108  A    between atoms: _268  and  _271
REMARK  109  A    between atoms: _271  and  _272
REMARK  110  A    between atoms: _272  and  _273
REMARK  111  A    between atoms: _275  and  _277
REMARK  112  A    between atoms: _277  and  _278
REMARK  113  A    between atoms: _277  and  _280
REMARK  114  A    between atoms: _280  and  _281
REMARK  115  A    between atoms: _281  and  _282
REMARK  116  A    between atoms: _282  and  _283
REMARK  117  A    between atoms: _292  and  _294
REMARK  118  A    between atoms: _294  and  _295
REMARK  119  A    between atoms: _294  and  _297
REMARK  120  A    between atoms: _297  and  _298
REMARK  121  A    between atoms: _298  and  _299
REMARK  122  A    between atoms: _304  and  _306
REMARK  123  A    between atoms: _306  and  _307
REMARK  124  A    between atoms: _310  and  _312
REMARK  125  A    between atoms: _312  and  _313
REMARK  126  A    between atoms: _312  and  _315
REMARK  127  A    between atoms: _315  and  _316
REMARK  128  A    between atoms: _316  and  _317
REMARK  129  A    between atoms: _317  and  _318
REMARK  130  A    between atoms: _327  and  _329
REMARK  131  A    between atoms: _329  and  _330
REMARK  132  A    between atoms: _329  and  _332
REMARK  133  A    between atoms: _332  and  _333
REMARK                            x       y       z     vdW  Elec       q    Type
REMARK                         _______ _______ _______ _____ _____    ______ ____
ROOT
ATOM      1  C   ASN A   1     -16.986  38.206 -19.108  0.00  0.00    +0.239 C 
ATOM      2  O   ASN A   1     -16.404  38.290 -17.986  0.00  0.00    -0.274 OA
ATOM      3  N   TYR A   2     -17.264  37.046 -19.694  0.00  0.00    -0.298 N 
ATOM      4  H   TYR A   2     -17.723  37.053 -20.627  0.00  0.00    +0.150 HD
ENDROOT
BRANCH   1   5
ATOM      5  CA  ASN A   1     -17.427  39.475 -19.864  0.00  0.00    +0.154 C 
BRANCH   5   6
ATOM      6  N   ASN A   1     -16.879  40.649 -19.138  0.00  0.00    -0.238 NA
ATOM      7  H   ASN A   1     -16.027  40.523 -18.555  0.00  0.00    +0.142 HD
ENDBRANCH   5   6
BRANCH   5   8
ATOM      8  CB  ASN A   1     -16.972  39.480 -21.338  0.00  0.00    +0.111 C 
BRANCH   8   9
ATOM      9  CG  ASN A   1     -18.000  38.838 -22.293  0.00  0.00    +0.221 C 
ATOM     10  OD1 ASN A   1     -18.745  37.894 -21.942  0.00  0.00    -0.275 OA
ATOM     11  ND2 ASN A   1     -18.035  39.354 -23.513  0.00  0.00    -0.329 N 
ATOM     12 HD21 ASN A   1     -17.399  40.138 -23.765  0.00  0.00    +0.145 HD
ATOM     13 HD22 ASN A   1     -18.698  38.975 -24.219  0.00  0.00    +0.145 HD
ENDBRANCH   8   9
ENDBRANCH   5   8
ENDBRANCH   1   5
BRANCH   3  14
ATOM     14  CA  TYR A   2     -16.947  35.763 -19.074  0.00  0.00    +0.141 C 
BRANCH  14  15
ATOM     15  C   TYR A   2     -15.489  35.645 -18.640  0.00  0.00    +0.227 C 
ATOM     16  O   TYR A   2     -14.599  35.768 -19.460  0.00  0.00    -0.286 OA
ENDBRANCH  14  15
BRANCH  14  17
ATOM     17  CB  TYR A   2     -17.196  34.624 -20.051  0.00  0.00    +0.054 C 
BRANCH  17  18
ATOM     18  CG  TYR A   2     -18.620  34.435 -20.509  0.00  0.00    -0.020 A 
ATOM     19  CD2 TYR A   2     -19.687  35.065 -19.857  0.00  0.00    -0.001 A 
ATOM     20  CE2 TYR A   2     -21.004  34.892 -20.265  0.00  0.00    +0.036 A 
ATOM     21  CZ  TYR A   2     -21.262  34.009 -21.298  0.00  0.00    +0.134 A 
ATOM     22  CE1 TYR A   2     -20.219  33.333 -21.937  0.00  0.00    +0.036 A 
ATOM     23  CD1 TYR A   2     -18.894  33.560 -21.536  0.00  0.00    -0.001 A 
BRANCH  21  24
ATOM     24  OH  TYR A   2     -22.539  33.740 -21.687  0.00  0.00    -0.506 OA
ATOM     25  HH  TYR A   2     -23.168  34.287 -21.153  0.00  0.00    +0.292 HD
ENDBRANCH  21  24
ENDBRANCH  17  18
ENDBRANCH  14  17
ENDBRANCH   3  14
TORSDOF 9
REMARK  Name = ../refined-set-2016/3jzg/3jzg_pocket.pdb
REMARK  133 active torsions:
REMARK  status: ('A' for Active; 'I' for Inactive)
REMARK    1  A    between atoms: _2  and  _3
REMARK    2  A    between atoms: _8  and  _10
REMARK    3  A    between atoms: _10  and  _11
REMARK    4  A    between atoms: _10  and  _13
REMARK    5  A    between atoms: _13  and  _14
REMARK    6  A    between atoms: _20  and  _22
REMARK    7  A    between atoms: _22  and  _23
REMARK    8  A    between atoms: _25  and  _27
REMARK    9  A    between atoms: _27  and  _28
REMARK   10  A    between atoms: _27  and  _30
REMARK   11  A    between atoms: _30  and  _31
REMARK   12  A    between atoms: _36  and  _38
REMARK   13  A    between atoms: _38  and  _39
REMARK   14  A    between atoms: _38  and  _41
REMARK   15  A    between atoms: _41  and  _42
REMARK   16  A    between atoms: _48  and  _50
REMARK   17  A    between atoms: _50  and  _51
REMARK   18  A    between atoms: _50  and  _53
REMARK   19  A    between atoms: _53  and  _54
REMARK   20  A    between atoms: _59  and  _60
REMARK   21  A    between atoms: _62  and  _64
REMARK   22  A    between atoms: _64  and  _65
REMARK   23  A    between atoms: _64  and  _67
REMARK   24  A    between atoms: _67  and  _68
REMARK   25  A    between atoms: _71  and  _73
REMARK   26  A    between atoms: _73  and  _74
REMARK   27  A    between atoms: _76  and  _78
REMARK   28  A    between atoms: _78  and  _79
REMARK   29  A    between atoms: _78  and  _81
REMARK   30  A    between atoms: _81  and  _82
REMARK   31  A    between atoms: _84  and  _86
REMARK   32  A    between atoms: _86  and  _87
REMARK   33  A    between atoms: _90  and  _92
REMARK   34  A    between atoms: _92  and  _93
REMARK   35  A    between atoms: _92  and  _95
REMARK   36  A    between atoms: _95  and  _96
REMARK   37  A    between atoms: _99  and  _101
REMARK   38  A    between atoms: _101  and  _102
REMARK   39  A    between atoms: _101  and  _104
REMARK   40  A    between atoms: _104  and  _105
REMARK   41  A    between atoms: _110  and  _112
REMARK   42  A    between atoms: _112  and  _113
REMARK   43  A    between atoms: _112  and  _115
REMARK   44  A    between atoms: _115  and  _116
REMARK   45  A    between atoms: _116  and  _117
REMARK   46  A    between atoms: _117  and  _118
REMARK   47  A    between atoms: _118  and  _119
REMARK   48  A    between atoms: _123  and  _125
REMARK   49  A    between atoms: _125  and  _126
REMARK   50  A    between atoms: _125  and  _128
REMARK   51  A    between atoms: _128  and  _129
REMARK   52  A    between atoms: _129  and  _130
REMARK   53  A    between atoms: _133  and  _135
REMARK   54  A    between atoms: _135  and  _136
REMARK   55  A    between atoms: _135  and  _138
REMARK   56  A    between atoms: _138  and  _139
REMARK   57  A    between atoms: _142  and  _144
REMARK   58  A    between atoms: _144  and  _145
REMARK   59  A    between atoms: _144  and  _147
REMARK   60  A    between atoms: _147  and  _148
REMARK   61  A    between atoms: _148  and  _149
REMARK   62  A    between atoms: _151  and  _153
REMARK   63  A    between atoms: _153  and  _154
REMARK   64  A    between atoms: _153  and  _156
REMARK   65  A    between atoms: _156  and  _157
REMARK   66  A    between atoms: _162  and  _164
REMARK   67  A    between atoms: _164  and  _165
REMARK   68  A    between atoms: _164  and  _167
REMARK   69  A    between atoms: _167  and  _168
REMARK   70  A    between atoms: _173  and  _175
REMARK   71  A    between atoms: _175  and  _176
REMARK   72  A    between atoms: _175  and  _178
REMARK   73  A    between atoms: _178  and  _179
REMARK   74  A    between atoms: _184  and  _185
REMARK   75  A    between atoms: _187  and  _189
REMARK   76  A    between atoms: _189  and  _190
REMARK   77  A    between atoms: _189  and  _192
REMARK   78  A    between atoms: _192  and  _193
REMARK   79  A    between atoms: _196  and  _198
REMARK   80  A    between atoms: _198  and  _199
REMARK   81  A    between atoms: _198  and  _201
REMARK   82  A    between atoms: _201  and  _202
REMARK   83  A    between atoms: _204  and  _206
REMARK   84  A    between atoms: _206  and  _207
REMARK   85  A    between atoms: _206  and  _209
REMARK   86  A    between atoms: _211  and  _213
REMARK   87  A    between atoms: _213  and  _214
REMARK   88  A    between atoms: _213  and  _216
REMARK   89  A    between atoms: _218  and  _220
REMARK   90  A    between atoms: _220  and  _221
REMARK   91  A    between atoms: _220  and  _223
REMARK   92  A    between atoms: _223  and  _224
REMARK   93  A    between atoms: _227  and  _229
REMARK   94  A    between atoms: _229  and  _230
REMARK   95  A    between atoms: _229  and  _232
REMARK   96  A    between atoms: _232  and  _233
REMARK   97  A    between atoms: _236  and  _238
REMARK   98  A    between atoms: _238  and  _239
REMARK   99  A    between atoms: _238  and  _241
REMARK  100  A    between atoms: _241  and  _242
REMARK  101  A    between atoms: _252  and  _254
REMARK  102  A    between atoms: _254  and  _255
REMARK  103  A    between atoms: _254  and  _257
REMARK  104  A    between atoms: _257  and  _258
REMARK  105  A    between atoms: _263  and  _264
REMARK  106  A    between atoms: _266  and  _268
REMARK  107  A    between atoms: _268  and  _269
REMARK  108  A    between atoms: _268  and  _271
REMARK  109  A    between atoms: _271  and  _272
REMARK  110  A    between atoms: _272  and  _273
REMARK  111  A    between atoms: _275  and  _277
REMARK  112  A    between atoms: _277  and  _278
REMARK  113  A    between atoms: _277  and  _280
REMARK  114  A    between atoms: _280  and  _281
REMARK  115  A    between atoms: _281  and  _282
REMARK  116  A    between atoms: _282  and  _283
REMARK  117  A    between atoms: _292  and  _294
REMARK  118  A    between atoms: _294  and  _295
REMARK  119  A    between atoms: _294  and  _297
REMARK  120  A    between atoms: _297  and  _298
REMARK  121  A    between atoms: _298  and  _299
REMARK  122  A    between atoms: _304  and  _306
REMARK  123  A    between atoms: _306  and  _307
REMARK  124  A    between atoms: _310  and  _312
REMARK  125  A    between atoms: _312  and  _313
REMARK  126  A    between atoms: _312  and  _315
REMARK  127  A    between atoms: _315  and  _316
REMARK  128  A    between atoms: _316  and  _317
REMARK  129  A    between atoms: _317  and  _318
REMARK  130  A    between atoms: _327  and  _329
REMARK  131  A    between atoms: _329  and  _330
REMARK  132  A    between atoms: _329  and  _332
REMARK  133  A    between atoms: _332  and  _333
REMARK                            x       y       z     vdW  Elec       q    Type
REMARK                         _______ _______ _______ _____ _____    ______ ____
ROOT
ATOM      1  CA  ASP A   1     -12.333  32.024 -18.298  0.00  0.00    +0.144 C 
ENDROOT
BRANCH   1   2
ATOM      2  N   ASP A   1     -12.546  33.432 -17.892  0.00  0.00    -0.239 NA
ATOM      3  H   ASP A   1     -11.957  34.182 -18.307  0.00  0.00    +0.142 HD
ENDBRANCH   1   2
BRANCH   1   4
ATOM      4  C   ASP A   1     -10.959  31.453 -17.928  0.00  0.00    +0.225 C 
ATOM      5  O   ASP A   1     -10.644  30.292 -18.218  0.00  0.00    -0.287 OA
ENDBRANCH   1   4
BRANCH   1   6
ATOM      6  CB  ASP A   1     -12.708  31.800 -19.805  0.00  0.00    +0.139 C 
BRANCH   6   7
ATOM      7  CG  ASP A   1     -11.779  32.540 -20.785  0.00  0.00    +0.367 C 
ATOM      8  OD2 ASP A   1     -10.942  33.382 -20.343  0.00  0.00    -0.246 OA
ATOM      9  OD1 ASP A   1     -11.842  32.257 -22.014  0.00  0.00    -0.246 OA
ENDBRANCH   6   7
ENDBRANCH   1   6
TORSDOF 4
REMARK  Name = ../refined-set-2016/3jzg/3jzg_pocket.pdb
REMARK  133 active torsions:
REMARK  status: ('A' for Active; 'I' for Inactive)
REMARK    1  A    between atoms: _2  and  _3
REMARK    2  A    between atoms: _8  and  _10
REMARK    3  A    between atoms: _10  and  _11
REMARK    4  A    between atoms: _10  and  _13
REMARK    5  A    between atoms: _13  and  _14
REMARK    6  A    between atoms: _20  and  _22
REMARK    7  A    between atoms: _22  and  _23
REMARK    8  A    between atoms: _25  and  _27
REMARK    9  A    between atoms: _27  and  _28
REMARK   10  A    between atoms: _27  and  _30
REMARK   11  A    between atoms: _30  and  _31
REMARK   12  A    between atoms: _36  and  _38
REMARK   13  A    between atoms: _38  and  _39
REMARK   14  A    between atoms: _38  and  _41
REMARK   15  A    between atoms: _41  and  _42
REMARK   16  A    between atoms: _48  and  _50
REMARK   17  A    between atoms: _50  and  _51
REMARK   18  A    between atoms: _50  and  _53
REMARK   19  A    between atoms: _53  and  _54
REMARK   20  A    between atoms: _59  and  _60
REMARK   21  A    between atoms: _62  and  _64
REMARK   22  A    between atoms: _64  and  _65
REMARK   23  A    between atoms: _64  and  _67
REMARK   24  A    between atoms: _67  and  _68
REMARK   25  A    between atoms: _71  and  _73
REMARK   26  A    between atoms: _73  and  _74
REMARK   27  A    between atoms: _76  and  _78
REMARK   28  A    between atoms: _78  and  _79
REMARK   29  A    between atoms: _78  and  _81
REMARK   30  A    between atoms: _81  and  _82
REMARK   31  A    between atoms: _84  and  _86
REMARK   32  A    between atoms: _86  and  _87
REMARK   33  A    between atoms: _90  and  _92
REMARK   34  A    between atoms: _92  and  _93
REMARK   35  A    between atoms: _92  and  _95
REMARK   36  A    between atoms: _95  and  _96
REMARK   37  A    between atoms: _99  and  _101
REMARK   38  A    between atoms: _101  and  _102
REMARK   39  A    between atoms: _101  and  _104
REMARK   40  A    between atoms: _104  and  _105
REMARK   41  A    between atoms: _110  and  _112
REMARK   42  A    between atoms: _112  and  _113
REMARK   43  A    between atoms: _112  and  _115
REMARK   44  A    between atoms: _115  and  _116
REMARK   45  A    between atoms: _116  and  _117
REMARK   46  A    between atoms: _117  and  _118
REMARK   47  A    between atoms: _118  and  _119
REMARK   48  A    between atoms: _123  and  _125
REMARK   49  A    between atoms: _125  and  _126
REMARK   50  A    between atoms: _125  and  _128
REMARK   51  A    between atoms: _128  and  _129
REMARK   52  A    between atoms: _129  and  _130
REMARK   53  A    between atoms: _133  and  _135
REMARK   54  A    between atoms: _135  and  _136
REMARK   55  A    between atoms: _135  and  _138
REMARK   56  A    between atoms: _138  and  _139
REMARK   57  A    between atoms: _142  and  _144
REMARK   58  A    between atoms: _144  and  _145
REMARK   59  A    between atoms: _144  and  _147
REMARK   60  A    between atoms: _147  and  _148
REMARK   61  A    between atoms: _148  and  _149
REMARK   62  A    between atoms: _151  and  _153
REMARK   63  A    between atoms: _153  and  _154
REMARK   64  A    between atoms: _153  and  _156
REMARK   65  A    between atoms: _156  and  _157
REMARK   66  A    between atoms: _162  and  _164
REMARK   67  A    between atoms: _164  and  _165
REMARK   68  A    between atoms: _164  and  _167
REMARK   69  A    between atoms: _167  and  _168
REMARK   70  A    between atoms: _173  and  _175
REMARK   71  A    between atoms: _175  and  _176
REMARK   72  A    between atoms: _175  and  _178
REMARK   73  A    between atoms: _178  and  _179
REMARK   74  A    between atoms: _184  and  _185
REMARK   75  A    between atoms: _187  and  _189
REMARK   76  A    between atoms: _189  and  _190
REMARK   77  A    between atoms: _189  and  _192
REMARK   78  A    between atoms: _192  and  _193
REMARK   79  A    between atoms: _196  and  _198
REMARK   80  A    between atoms: _198  and  _199
REMARK   81  A    between atoms: _198  and  _201
REMARK   82  A    between atoms: _201  and  _202
REMARK   83  A    between atoms: _204  and  _206
REMARK   84  A    between atoms: _206  and  _207
REMARK   85  A    between atoms: _206  and  _209
REMARK   86  A    between atoms: _211  and  _213
REMARK   87  A    between atoms: _213  and  _214
REMARK   88  A    between atoms: _213  and  _216
REMARK   89  A    between atoms: _218  and  _220
REMARK   90  A    between atoms: _220  and  _221
REMARK   91  A    between atoms: _220  and  _223
REMARK   92  A    between atoms: _223  and  _224
REMARK   93  A    between atoms: _227  and  _229
REMARK   94  A    between atoms: _229  and  _230
REMARK   95  A    between atoms: _229  and  _232
REMARK   96  A    between atoms: _232  and  _233
REMARK   97  A    between atoms: _236  and  _238
REMARK   98  A    between atoms: _238  and  _239
REMARK   99  A    between atoms: _238  and  _241
REMARK  100  A    between atoms: _241  and  _242
REMARK  101  A    between atoms: _252  and  _254
REMARK  102  A    between atoms: _254  and  _255
REMARK  103  A    between atoms: _254  and  _257
REMARK  104  A    between atoms: _257  and  _258
REMARK  105  A    between atoms: _263  and  _264
REMARK  106  A    between atoms: _266  and  _268
REMARK  107  A    between atoms: _268  and  _269
REMARK  108  A    between atoms: _268  and  _271
REMARK  109  A    between atoms: _271  and  _272
REMARK  110  A    between atoms: _272  and  _273
REMARK  111  A    between atoms: _275  and  _277
REMARK  112  A    between atoms: _277  and  _278
REMARK  113  A    between atoms: _277  and  _280
REMARK  114  A    between atoms: _280  and  _281
REMARK  115  A    between atoms: _281  and  _282
REMARK  116  A    between atoms: _282  and  _283
REMARK  117  A    between atoms: _292  and  _294
REMARK  118  A    between atoms: _294  and  _295
REMARK  119  A    between atoms: _294  and  _297
REMARK  120  A    between atoms: _297  and  _298
REMARK  121  A    between atoms: _298  and  _299
REMARK  122  A    between atoms: _304  and  _306
REMARK  123  A    between atoms: _306  and  _307
REMARK  124  A    between atoms: _310  and  _312
REMARK  125  A    between atoms: _312  and  _313
REMARK  126  A    between atoms: _312  and  _315
REMARK  127  A    between atoms: _315  and  _316
REMARK  128  A    between atoms: _316  and  _317
REMARK  129  A    between atoms: _317  and  _318
REMARK  130  A    between atoms: _327  and  _329
REMARK  131  A    between atoms: _329  and  _330
REMARK  132  A    between atoms: _329  and  _332
REMARK  133  A    between atoms: _332  and  _333
REMARK                            x       y       z     vdW  Elec       q    Type
REMARK                         _______ _______ _______ _____ _____    ______ ____
ROOT
ATOM      1  C   SER A   1     -11.668  37.065 -21.632  0.00  0.00    +0.241 C 
ATOM      2  O   SER A   1     -10.521  36.852 -22.076  0.00  0.00    -0.274 OA
ATOM      3  N   CYS A   2     -12.724  37.241 -22.418  0.00  0.00    -0.297 N 
ATOM      4  H   CYS A   2     -13.650  37.420 -21.980  0.00  0.00    +0.150 HD
ENDROOT
BRANCH   1   5
ATOM      5  CA  SER A   1     -11.902  37.211 -20.151  0.00  0.00    +0.174 C 
BRANCH   5   6
ATOM      6  N   SER A   1     -10.556  37.456 -19.617  0.00  0.00    -0.236 NA
ATOM      7  H   SER A   1     -10.021  38.274 -19.972  0.00  0.00    +0.142 HD
ENDBRANCH   5   6
BRANCH   5   8
ATOM      8  CB  SER A   1     -12.795  38.431 -19.871  0.00  0.00    +0.163 C 
BRANCH   8   9
ATOM      9  OG  SER A   1     -14.081  38.318 -20.526  0.00  0.00    -0.380 OA
ATOM     10  H   SER A   1     -14.547  37.509 -20.197  0.00  0.00    +0.211 HD
ENDBRANCH   8   9
ENDBRANCH   5   8
ENDBRANCH   1   5
BRANCH   3  11
ATOM     11  CA  CYS A   2     -12.634  37.192 -23.876  0.00  0.00    +0.149 C 
BRANCH  11  12
ATOM     12  CB  CYS A   2     -13.835  36.388 -24.417  0.00  0.00    +0.096 C 
ATOM     13  SG  CYS A   2     -15.459  37.034 -23.827  0.00  0.00    -0.080 S 
ENDBRANCH  11  12
BRANCH  11  14
ATOM     14  C   CYS A   2     -12.546  38.624 -24.479  0.00  0.00    +0.228 C 
ATOM     15  O   CYS A   2     -13.127  38.934 -25.545  0.00  0.00    -0.286 OA
ENDBRANCH  11  14
ENDBRANCH   3  11
TORSDOF 7
REMARK  Name = ../refined-set-2016/3jzg/3jzg_pocket.pdb
REMARK  133 active torsions:
REMARK  status: ('A' for Active; 'I' for Inactive)
REMARK    1  A    between atoms: _2  and  _3
REMARK    2  A    between atoms: _8  and  _10
REMARK    3  A    between atoms: _10  and  _11
REMARK    4  A    between atoms: _10  and  _13
REMARK    5  A    between atoms: _13  and  _14
REMARK    6  A    between atoms: _20  and  _22
REMARK    7  A    between atoms: _22  and  _23
REMARK    8  A    between atoms: _25  and  _27
REMARK    9  A    between atoms: _27  and  _28
REMARK   10  A    between atoms: _27  and  _30
REMARK   11  A    between atoms: _30  and  _31
REMARK   12  A    between atoms: _36  and  _38
REMARK   13  A    between atoms: _38  and  _39
REMARK   14  A    between atoms: _38  and  _41
REMARK   15  A    between atoms: _41  and  _42
REMARK   16  A    between atoms: _48  and  _50
REMARK   17  A    between atoms: _50  and  _51
REMARK   18  A    between atoms: _50  and  _53
REMARK   19  A    between atoms: _53  and  _54
REMARK   20  A    between atoms: _59  and  _60
REMARK   21  A    between atoms: _62  and  _64
REMARK   22  A    between atoms: _64  and  _65
REMARK   23  A    between atoms: _64  and  _67
REMARK   24  A    between atoms: _67  and  _68
REMARK   25  A    between atoms: _71  and  _73
REMARK   26  A    between atoms: _73  and  _74
REMARK   27  A    between atoms: _76  and  _78
REMARK   28  A    between atoms: _78  and  _79
REMARK   29  A    between atoms: _78  and  _81
REMARK   30  A    between atoms: _81  and  _82
REMARK   31  A    between atoms: _84  and  _86
REMARK   32  A    between atoms: _86  and  _87
REMARK   33  A    between atoms: _90  and  _92
REMARK   34  A    between atoms: _92  and  _93
REMARK   35  A    between atoms: _92  and  _95
REMARK   36  A    between atoms: _95  and  _96
REMARK   37  A    between atoms: _99  and  _101
REMARK   38  A    between atoms: _101  and  _102
REMARK   39  A    between atoms: _101  and  _104
REMARK   40  A    between atoms: _104  and  _105
REMARK   41  A    between atoms: _110  and  _112
REMARK   42  A    between atoms: _112  and  _113
REMARK   43  A    between atoms: _112  and  _115
REMARK   44  A    between atoms: _115  and  _116
REMARK   45  A    between atoms: _116  and  _117
REMARK   46  A    between atoms: _117  and  _118
REMARK   47  A    between atoms: _118  and  _119
REMARK   48  A    between atoms: _123  and  _125
REMARK   49  A    between atoms: _125  and  _126
REMARK   50  A    between atoms: _125  and  _128
REMARK   51  A    between atoms: _128  and  _129
REMARK   52  A    between atoms: _129  and  _130
REMARK   53  A    between atoms: _133  and  _135
REMARK   54  A    between atoms: _135  and  _136
REMARK   55  A    between atoms: _135  and  _138
REMARK   56  A    between atoms: _138  and  _139
REMARK   57  A    between atoms: _142  and  _144
REMARK   58  A    between atoms: _144  and  _145
REMARK   59  A    between atoms: _144  and  _147
REMARK   60  A    between atoms: _147  and  _148
REMARK   61  A    between atoms: _148  and  _149
REMARK   62  A    between atoms: _151  and  _153
REMARK   63  A    between atoms: _153  and  _154
REMARK   64  A    between atoms: _153  and  _156
REMARK   65  A    between atoms: _156  and  _157
REMARK   66  A    between atoms: _162  and  _164
REMARK   67  A    between atoms: _164  and  _165
REMARK   68  A    between atoms: _164  and  _167
REMARK   69  A    between atoms: _167  and  _168
REMARK   70  A    between atoms: _173  and  _175
REMARK   71  A    between atoms: _175  and  _176
REMARK   72  A    between atoms: _175  and  _178
REMARK   73  A    between atoms: _178  and  _179
REMARK   74  A    between atoms: _184  and  _185
REMARK   75  A    between atoms: _187  and  _189
REMARK   76  A    between atoms: _189  and  _190
REMARK   77  A    between atoms: _189  and  _192
REMARK   78  A    between atoms: _192  and  _193
REMARK   79  A    between atoms: _196  and  _198
REMARK   80  A    between atoms: _198  and  _199
REMARK   81  A    between atoms: _198  and  _201
REMARK   82  A    between atoms: _201  and  _202
REMARK   83  A    between atoms: _204  and  _206
REMARK   84  A    between atoms: _206  and  _207
REMARK   85  A    between atoms: _206  and  _209
REMARK   86  A    between atoms: _211  and  _213
REMARK   87  A    between atoms: _213  and  _214
REMARK   88  A    between atoms: _213  and  _216
REMARK   89  A    between atoms: _218  and  _220
REMARK   90  A    between atoms: _220  and  _221
REMARK   91  A    between atoms: _220  and  _223
REMARK   92  A    between atoms: _223  and  _224
REMARK   93  A    between atoms: _227  and  _229
REMARK   94  A    between atoms: _229  and  _230
REMARK   95  A    between atoms: _229  and  _232
REMARK   96  A    between atoms: _232  and  _233
REMARK   97  A    between atoms: _236  and  _238
REMARK   98  A    between atoms: _238  and  _239
REMARK   99  A    between atoms: _238  and  _241
REMARK  100  A    between atoms: _241  and  _242
REMARK  101  A    between atoms: _252  and  _254
REMARK  102  A    between atoms: _254  and  _255
REMARK  103  A    between atoms: _254  and  _257
REMARK  104  A    between atoms: _257  and  _258
REMARK  105  A    between atoms: _263  and  _264
REMARK  106  A    between atoms: _266  and  _268
REMARK  107  A    between atoms: _268  and  _269
REMARK  108  A    between atoms: _268  and  _271
REMARK  109  A    between atoms: _271  and  _272
REMARK  110  A    between atoms: _272  and  _273
REMARK  111  A    between atoms: _275  and  _277
REMARK  112  A    between atoms: _277  and  _278
REMARK  113  A    between atoms: _277  and  _280
REMARK  114  A    between atoms: _280  and  _281
REMARK  115  A    between atoms: _281  and  _282
REMARK  116  A    between atoms: _282  and  _283
REMARK  117  A    between atoms: _292  and  _294
REMARK  118  A    between atoms: _294  and  _295
REMARK  119  A    between atoms: _294  and  _297
REMARK  120  A    between atoms: _297  and  _298
REMARK  121  A    between atoms: _298  and  _299
REMARK  122  A    between atoms: _304  and  _306
REMARK  123  A    between atoms: _306  and  _307
REMARK  124  A    between atoms: _310  and  _312
REMARK  125  A    between atoms: _312  and  _313
REMARK  126  A    between atoms: _312  and  _315
REMARK  127  A    between atoms: _315  and  _316
REMARK  128  A    between atoms: _316  and  _317
REMARK  129  A    between atoms: _317  and  _318
REMARK  130  A    between atoms: _327  and  _329
REMARK  131  A    between atoms: _329  and  _330
REMARK  132  A    between atoms: _329  and  _332
REMARK  133  A    between atoms: _332  and  _333
REMARK                            x       y       z     vdW  Elec       q    Type
REMARK                         _______ _______ _______ _____ _____    ______ ____
ROOT
ATOM      1  C   TRP A   4     -13.943  30.684 -24.455  0.00  0.00    +0.241 C 
ATOM      2  N   TYR A   5     -13.251  30.377 -23.367  0.00  0.00    -0.297 N 
ATOM      3  H   TYR A   5     -13.092  31.141 -22.680  0.00  0.00    +0.150 HD
ATOM      4  O   TRP A   4     -14.178  29.883 -25.378  0.00  0.00    -0.273 OA
ENDROOT
BRANCH   2   5
ATOM      5  CA  TYR A   5     -12.682  29.049 -23.035  0.00  0.00    +0.153 C 
BRANCH   5   6
ATOM      6  C   TYR A   5     -11.347  28.907 -23.762  0.00  0.00    +0.241 C 
ATOM      7  N   MET A   6     -10.428  29.815 -23.399  0.00  0.00    -0.297 N 
ATOM      8  H   MET A   6     -10.661  30.433 -22.596  0.00  0.00    +0.150 HD
ATOM      9  O   TYR A   5     -11.177  28.030 -24.616  0.00  0.00    -0.273 OA
BRANCH   7  10
ATOM     10  CA  MET A   6      -9.113  30.012 -24.043  0.00  0.00    +0.149 C 
BRANCH  10  11
ATOM     11  C   MET A   6      -8.179  30.258 -22.872  0.00  0.00    +0.241 C 
ATOM     12  O   MET A   6      -8.278  31.306 -22.224  0.00  0.00    -0.273 OA
ATOM     13  N   ARG A   7      -7.360  29.276 -22.504  0.00  0.00    -0.298 N 
ATOM     14  H   ARG A   7      -7.263  28.433 -23.106  0.00  0.00    +0.150 HD
BRANCH  13  15
ATOM     15  CA  ARG A   7      -6.599  29.370 -21.269  0.00  0.00    +0.137 C 
BRANCH  15  16
ATOM     16  C   ARG A   7      -5.137  29.649 -21.477  0.00  0.00    +0.227 C 
ATOM     17  O   ARG A   7      -4.526  29.042 -22.347  0.00  0.00    -0.286 OA
ENDBRANCH  15  16
BRANCH  15  18
ATOM     18  CB  ARG A   7      -6.632  28.008 -20.576  0.00  0.00    +0.031 C 
BRANCH  18  19
ATOM     19  CG  ARG A   7      -7.847  27.752 -19.798  0.00  0.00    +0.045 C 
BRANCH  19  20
ATOM     20  CD  ARG A   7      -9.141  28.103 -20.468  0.00  0.00    +0.174 C 
BRANCH  20  21
ATOM     21  NE  ARG A   7     -10.134  27.660 -19.496  0.00  0.00    -0.265 N 
ATOM     22  HE  ARG A   7     -10.686  28.382 -18.990  0.00  0.00    +0.259 HD
ATOM     23  CZ  ARG A   7     -10.372  26.366 -19.222  0.00  0.00    +0.342 C 
ATOM     24  NH2 ARG A   7     -11.250  26.077 -18.275  0.00  0.00    -0.292 N 
ATOM     25 HH21 ARG A   7     -11.735  26.842 -17.765  0.00  0.00    +0.255 HD
ATOM     26 HH22 ARG A   7     -11.455  25.085 -18.041  0.00  0.00    +0.255 HD
ATOM     27  NH1 ARG A   7      -9.740  25.387 -19.920  0.00  0.00    -0.292 N 
ATOM     28 HH11 ARG A   7      -9.929  24.388 -19.702  0.00  0.00    +0.255 HD
ATOM     29 HH12 ARG A   7      -9.067  25.637 -20.672  0.00  0.00    +0.255 HD
ENDBRANCH  20  21
ENDBRANCH  19  20
ENDBRANCH  18  19
ENDBRANCH  15  18
ENDBRANCH  13  15
ENDBRANCH  10  11
BRANCH  10  30
ATOM     30  CB  MET A   6      -9.161  31.270 -24.964  0.00  0.00    +0.041 C 
BRANCH  30  31
ATOM     31  CG  MET A   6     -10.163  31.122 -26.139  0.00  0.00    +0.060 C 
BRANCH  31  32
ATOM     32  SD  MET A   6      -9.505  29.891 -27.380  0.00  0.00    -0.139 S 
ATOM     33  CE  MET A   6      -8.547  30.990 -28.391  0.00  0.00    +0.069 C 
ENDBRANCH  31  32
ENDBRANCH  30  31
ENDBRANCH  10  30
ENDBRANCH   7  10
ENDBRANCH   5   6
BRANCH   5  34
ATOM     34  CB  TYR A   5     -13.641  27.860 -23.316  0.00  0.00    +0.055 C 
BRANCH  34  35
ATOM     35  CG  TYR A   5     -13.301  26.659 -22.465  0.00  0.00    -0.020 A 
ATOM     36  CD2 TYR A   5     -13.800  26.542 -21.155  0.00  0.00    -0.001 A 
ATOM     37  CE2 TYR A   5     -13.478  25.436 -20.355  0.00  0.00    +0.036 A 
ATOM     38  CZ  TYR A   5     -12.655  24.427 -20.858  0.00  0.00    +0.134 A 
ATOM     39  CE1 TYR A   5     -12.152  24.519 -22.174  0.00  0.00    +0.036 A 
ATOM     40  CD1 TYR A   5     -12.480  25.624 -22.973  0.00  0.00    -0.001 A 
BRANCH  38  41
ATOM     41  OH  TYR A   5     -12.313  23.326 -20.042  0.00  0.00    -0.506 OA
ATOM     42  HH  TYR A   5     -12.750  23.423 -19.159  0.00  0.00    +0.292 HD
ENDBRANCH  38  41
ENDBRANCH  34  35
ENDBRANCH   5  34
ENDBRANCH   2   5
BRANCH   1  43
ATOM     43  CA  TRP A   4     -14.428  32.129 -24.537  0.00  0.00    +0.153 C 
BRANCH  43  45
ATOM     44  C   ILE A   3     -13.795  33.166 -26.620  0.00  0.00    +0.241 C 
ATOM     45  N   TRP A   4     -14.745  32.566 -25.917  0.00  0.00    -0.297 N 
ATOM     46  H   TRP A   4     -15.689  32.406 -26.324  0.00  0.00    +0.150 HD
ATOM     47  O   ILE A   3     -12.681  33.441 -26.140  0.00  0.00    -0.273 OA
BRANCH  44  48
ATOM     48  CA  ILE A   3     -14.126  33.552 -28.061  0.00  0.00    +0.149 C 
BRANCH  48  51
ATOM     49  C   ASP A   2     -13.817  35.942 -28.100  0.00  0.00    +0.241 C 
ATOM     50  O   ASP A   2     -14.954  36.135 -27.668  0.00  0.00    -0.273 OA
ATOM     51  N   ILE A   3     -13.349  34.738 -28.413  0.00  0.00    -0.297 N 
ATOM     52  H   ILE A   3     -12.437  34.641 -28.904  0.00  0.00    +0.150 HD
BRANCH  49  53
ATOM     53  CA  ASP A   2     -12.925  37.123 -28.418  0.00  0.00    +0.160 C 
BRANCH  53  56
ATOM     54  C   CYS A   1     -10.532  36.491 -28.042  0.00  0.00    +0.239 C 
ATOM     55  O   CYS A   1     -10.540  36.748 -26.849  0.00  0.00    -0.274 OA
ATOM     56  N   ASP A   2     -11.619  36.593 -28.832  0.00  0.00    -0.297 N 
ATOM     57  H   ASP A   2     -11.526  36.270 -29.816  0.00  0.00    +0.150 HD
BRANCH  54  58
ATOM     58  CA  CYS A   1      -9.208  36.066 -28.732  0.00  0.00    +0.156 C 
BRANCH  58  59
ATOM     59  N   CYS A   1      -8.873  37.091 -29.704  0.00  0.00    -0.237 NA
ATOM     60  H   CYS A   1      -9.104  38.081 -29.486  0.00  0.00    +0.142 HD
ENDBRANCH  58  59
BRANCH  58  61
ATOM     61  CB  CYS A   1      -8.044  35.949 -27.755  0.00  0.00    +0.095 C 
ATOM     62  SG  CYS A   1      -8.079  34.460 -26.673  0.00  0.00    -0.080 S 
ENDBRANCH  58  61
ENDBRANCH  54  58
ENDBRANCH  53  56
BRANCH  53  63
ATOM     63  CB  ASP A   2     -13.681  37.818 -29.583  0.00  0.00    +0.143 C 
BRANCH  63  64
ATOM     64  CG  ASP A   2     -12.773  38.502 -30.550  0.00  0.00    +0.367 C 
ATOM     65  OD2 ASP A   2     -11.983  39.377 -30.147  0.00  0.00    -0.246 OA
ATOM     66  OD1 ASP A   2     -12.834  38.176 -31.729  0.00  0.00    -0.246 OA
ENDBRANCH  63  64
ENDBRANCH  53  63
ENDBRANCH  49  53
ENDBRANCH  48  51
BRANCH  48  67
ATOM     67  CB  ILE A   3     -13.938  32.368 -29.060  0.00  0.00    +0.027 C 
ATOM     68  CG2 ILE A   3     -14.517  32.740 -30.475  0.00  0.00    +0.002 C 
BRANCH  67  69
ATOM     69  CG1 ILE A   3     -12.476  31.857 -29.075  0.00  0.00    +0.002 C 
ATOM     70  CD1 ILE A   3     -12.228  30.792 -30.231  0.00  0.00    +0.000 C 
ENDBRANCH  67  69
ENDBRANCH  48  67
ENDBRANCH  44  48
ENDBRANCH  43  45
BRANCH  43  71
ATOM     71  CB  TRP A   4     -15.569  32.405 -23.565  0.00  0.00    +0.057 C 
BRANCH  71  72
ATOM     72  CG  TRP A   4     -16.859  31.614 -23.801  0.00  0.00    -0.002 A 
ATOM     73  CD2 TRP A   4     -17.247  30.357 -23.190  0.00  0.00    +0.013 A 
ATOM     74  CE3 TRP A   4     -16.642  29.482 -22.256  0.00  0.00    +0.001 A 
ATOM     75  CZ3 TRP A   4     -17.349  28.318 -21.845  0.00  0.00    +0.000 A 
ATOM     76  CH2 TRP A   4     -18.609  28.013 -22.384  0.00  0.00    +0.001 A 
ATOM     77  CZ2 TRP A   4     -19.217  28.850 -23.307  0.00  0.00    +0.017 A 
ATOM     78  CE2 TRP A   4     -18.518  30.023 -23.706  0.00  0.00    +0.056 A 
ATOM     79  NE1 TRP A   4     -18.885  31.034 -24.569  0.00  0.00    -0.352 N 
ATOM     80  HE1 TRP A   4     -19.772  31.070 -25.110  0.00  0.00    +0.166 HD
ATOM     81  CD1 TRP A   4     -17.896  31.987 -24.603  0.00  0.00    +0.068 A 
ENDBRANCH  71  72
ENDBRANCH  43  71
ENDBRANCH   1  43
TORSDOF 31
REMARK  Name = ../refined-set-2016/3jzg/3jzg_pocket.pdb
REMARK  133 active torsions:
REMARK  status: ('A' for Active; 'I' for Inactive)
REMARK    1  A    between atoms: _2  and  _3
REMARK    2  A    between atoms: _8  and  _10
REMARK    3  A    between atoms: _10  and  _11
REMARK    4  A    between atoms: _10  and  _13
REMARK    5  A    between atoms: _13  and  _14
REMARK    6  A    between atoms: _20  and  _22
REMARK    7  A    between atoms: _22  and  _23
REMARK    8  A    between atoms: _25  and  _27
REMARK    9  A    between atoms: _27  and  _28
REMARK   10  A    between atoms: _27  and  _30
REMARK   11  A    between atoms: _30  and  _31
REMARK   12  A    between atoms: _36  and  _38
REMARK   13  A    between atoms: _38  and  _39
REMARK   14  A    between atoms: _38  and  _41
REMARK   15  A    between atoms: _41  and  _42
REMARK   16  A    between atoms: _48  and  _50
REMARK   17  A    between atoms: _50  and  _51
REMARK   18  A    between atoms: _50  and  _53
REMARK   19  A    between atoms: _53  and  _54
REMARK   20  A    between atoms: _59  and  _60
REMARK   21  A    between atoms: _62  and  _64
REMARK   22  A    between atoms: _64  and  _65
REMARK   23  A    between atoms: _64  and  _67
REMARK   24  A    between atoms: _67  and  _68
REMARK   25  A    between atoms: _71  and  _73
REMARK   26  A    between atoms: _73  and  _74
REMARK   27  A    between atoms: _76  and  _78
REMARK   28  A    between atoms: _78  and  _79
REMARK   29  A    between atoms: _78  and  _81
REMARK   30  A    between atoms: _81  and  _82
REMARK   31  A    between atoms: _84  and  _86
REMARK   32  A    between atoms: _86  and  _87
REMARK   33  A    between atoms: _90  and  _92
REMARK   34  A    between atoms: _92  and  _93
REMARK   35  A    between atoms: _92  and  _95
REMARK   36  A    between atoms: _95  and  _96
REMARK   37  A    between atoms: _99  and  _101
REMARK   38  A    between atoms: _101  and  _102
REMARK   39  A    between atoms: _101  and  _104
REMARK   40  A    between atoms: _104  and  _105
REMARK   41  A    between atoms: _110  and  _112
REMARK   42  A    between atoms: _112  and  _113
REMARK   43  A    between atoms: _112  and  _115
REMARK   44  A    between atoms: _115  and  _116
REMARK   45  A    between atoms: _116  and  _117
REMARK   46  A    between atoms: _117  and  _118
REMARK   47  A    between atoms: _118  and  _119
REMARK   48  A    between atoms: _123  and  _125
REMARK   49  A    between atoms: _125  and  _126
REMARK   50  A    between atoms: _125  and  _128
REMARK   51  A    between atoms: _128  and  _129
REMARK   52  A    between atoms: _129  and  _130
REMARK   53  A    between atoms: _133  and  _135
REMARK   54  A    between atoms: _135  and  _136
REMARK   55  A    between atoms: _135  and  _138
REMARK   56  A    between atoms: _138  and  _139
REMARK   57  A    between atoms: _142  and  _144
REMARK   58  A    between atoms: _144  and  _145
REMARK   59  A    between atoms: _144  and  _147
REMARK   60  A    between atoms: _147  and  _148
REMARK   61  A    between atoms: _148  and  _149
REMARK   62  A    between atoms: _151  and  _153
REMARK   63  A    between atoms: _153  and  _154
REMARK   64  A    between atoms: _153  and  _156
REMARK   65  A    between atoms: _156  and  _157
REMARK   66  A    between atoms: _162  and  _164
REMARK   67  A    between atoms: _164  and  _165
REMARK   68  A    between atoms: _164  and  _167
REMARK   69  A    between atoms: _167  and  _168
REMARK   70  A    between atoms: _173  and  _175
REMARK   71  A    between atoms: _175  and  _176
REMARK   72  A    between atoms: _175  and  _178
REMARK   73  A    between atoms: _178  and  _179
REMARK   74  A    between atoms: _184  and  _185
REMARK   75  A    between atoms: _187  and  _189
REMARK   76  A    between atoms: _189  and  _190
REMARK   77  A    between atoms: _189  and  _192
REMARK   78  A    between atoms: _192  and  _193
REMARK   79  A    between atoms: _196  and  _198
REMARK   80  A    between atoms: _198  and  _199
REMARK   81  A    between atoms: _198  and  _201
REMARK   82  A    between atoms: _201  and  _202
REMARK   83  A    between atoms: _204  and  _206
REMARK   84  A    between atoms: _206  and  _207
REMARK   85  A    between atoms: _206  and  _209
REMARK   86  A    between atoms: _211  and  _213
REMARK   87  A    between atoms: _213  and  _214
REMARK   88  A    between atoms: _213  and  _216
REMARK   89  A    between atoms: _218  and  _220
REMARK   90  A    between atoms: _220  and  _221
REMARK   91  A    between atoms: _220  and  _223
REMARK   92  A    between atoms: _223  and  _224
REMARK   93  A    between atoms: _227  and  _229
REMARK   94  A    between atoms: _229  and  _230
REMARK   95  A    between atoms: _229  and  _232
REMARK   96  A    between atoms: _232  and  _233
REMARK   97  A    between atoms: _236  and  _238
REMARK   98  A    between atoms: _238  and  _239
REMARK   99  A    between atoms: _238  and  _241
REMARK  100  A    between atoms: _241  and  _242
REMARK  101  A    between atoms: _252  and  _254
REMARK  102  A    between atoms: _254  and  _255
REMARK  103  A    between atoms: _254  and  _257
REMARK  104  A    between atoms: _257  and  _258
REMARK  105  A    between atoms: _263  and  _264
REMARK  106  A    between atoms: _266  and  _268
REMARK  107  A    between atoms: _268  and  _269
REMARK  108  A    between atoms: _268  and  _271
REMARK  109  A    between atoms: _271  and  _272
REMARK  110  A    between atoms: _272  and  _273
REMARK  111  A    between atoms: _275  and  _277
REMARK  112  A    between atoms: _277  and  _278
REMARK  113  A    between atoms: _277  and  _280
REMARK  114  A    between atoms: _280  and  _281
REMARK  115  A    between atoms: _281  and  _282
REMARK  116  A    between atoms: _282  and  _283
REMARK  117  A    between atoms: _292  and  _294
REMARK  118  A    between atoms: _294  and  _295
REMARK  119  A    between atoms: _294  and  _297
REMARK  120  A    between atoms: _297  and  _298
REMARK  121  A    between atoms: _298  and  _299
REMARK  122  A    between atoms: _304  and  _306
REMARK  123  A    between atoms: _306  and  _307
REMARK  124  A    between atoms: _310  and  _312
REMARK  125  A    between atoms: _312  and  _313
REMARK  126  A    between atoms: _312  and  _315
REMARK  127  A    between atoms: _315  and  _316
REMARK  128  A    between atoms: _316  and  _317
REMARK  129  A    between atoms: _317  and  _318
REMARK  130  A    between atoms: _327  and  _329
REMARK  131  A    between atoms: _329  and  _330
REMARK  132  A    between atoms: _329  and  _332
REMARK  133  A    between atoms: _332  and  _333
REMARK                            x       y       z     vdW  Elec       q    Type
REMARK                         _______ _______ _______ _____ _____    ______ ____
ROOT
ATOM      1  CB  GLN A   1      -9.696  32.729 -31.968  0.00  0.00    +0.035 C 
ENDROOT
BRANCH   1   2
ATOM      2  CA  GLN A   1      -8.316  32.103 -32.062  0.00  0.00    +0.134 C 
BRANCH   2   3
ATOM      3  N   GLN A   1      -7.354  32.826 -31.236  0.00  0.00    -0.239 NA
ATOM      4  H   GLN A   1      -7.537  33.824 -31.008  0.00  0.00    +0.142 HD
ENDBRANCH   2   3
BRANCH   2   5
ATOM      5  C   GLN A   1      -7.940  31.871 -33.515  0.00  0.00    +0.224 C 
ATOM      6  O   GLN A   1      -8.650  31.137 -34.199  0.00  0.00    -0.287 OA
ENDBRANCH   2   5
ENDBRANCH   1   2
BRANCH   1   7
ATOM      7  CG  GLN A   1      -9.909  33.998 -32.828  0.00  0.00    +0.087 C 
BRANCH   7   8
ATOM      8  CD  GLN A   1     -10.852  35.021 -32.118  0.00  0.00    +0.219 C 
ATOM      9  OE1 GLN A   1     -11.185  34.844 -30.963  0.00  0.00    -0.275 OA
ATOM     10  NE2 GLN A   1     -11.204  36.121 -32.799  0.00  0.00    -0.329 N 
ATOM     11 HE21 GLN A   1     -11.780  36.855 -32.339  0.00  0.00    +0.145 HD
ATOM     12 HE22 GLN A   1     -10.901  36.240 -33.787  0.00  0.00    +0.145 HD
ENDBRANCH   7   8
ENDBRANCH   1   7
TORSDOF 5
REMARK  Name = ../refined-set-2016/3jzg/3jzg_pocket.pdb
REMARK  133 active torsions:
REMARK  status: ('A' for Active; 'I' for Inactive)
REMARK    1  A    between atoms: _2  and  _3
REMARK    2  A    between atoms: _8  and  _10
REMARK    3  A    between atoms: _10  and  _11
REMARK    4  A    between atoms: _10  and  _13
REMARK    5  A    between atoms: _13  and  _14
REMARK    6  A    between atoms: _20  and  _22
REMARK    7  A    between atoms: _22  and  _23
REMARK    8  A    between atoms: _25  and  _27
REMARK    9  A    between atoms: _27  and  _28
REMARK   10  A    between atoms: _27  and  _30
REMARK   11  A    between atoms: _30  and  _31
REMARK   12  A    between atoms: _36  and  _38
REMARK   13  A    between atoms: _38  and  _39
REMARK   14  A    between atoms: _38  and  _41
REMARK   15  A    between atoms: _41  and  _42
REMARK   16  A    between atoms: _48  and  _50
REMARK   17  A    between atoms: _50  and  _51
REMARK   18  A    between atoms: _50  and  _53
REMARK   19  A    between atoms: _53  and  _54
REMARK   20  A    between atoms: _59  and  _60
REMARK   21  A    between atoms: _62  and  _64
REMARK   22  A    between atoms: _64  and  _65
REMARK   23  A    between atoms: _64  and  _67
REMARK   24  A    between atoms: _67  and  _68
REMARK   25  A    between atoms: _71  and  _73
REMARK   26  A    between atoms: _73  and  _74
REMARK   27  A    between atoms: _76  and  _78
REMARK   28  A    between atoms: _78  and  _79
REMARK   29  A    between atoms: _78  and  _81
REMARK   30  A    between atoms: _81  and  _82
REMARK   31  A    between atoms: _84  and  _86
REMARK   32  A    between atoms: _86  and  _87
REMARK   33  A    between atoms: _90  and  _92
REMARK   34  A    between atoms: _92  and  _93
REMARK   35  A    between atoms: _92  and  _95
REMARK   36  A    between atoms: _95  and  _96
REMARK   37  A    between atoms: _99  and  _101
REMARK   38  A    between atoms: _101  and  _102
REMARK   39  A    between atoms: _101  and  _104
REMARK   40  A    between atoms: _104  and  _105
REMARK   41  A    between atoms: _110  and  _112
REMARK   42  A    between atoms: _112  and  _113
REMARK   43  A    between atoms: _112  and  _115
REMARK   44  A    between atoms: _115  and  _116
REMARK   45  A    between atoms: _116  and  _117
REMARK   46  A    between atoms: _117  and  _118
REMARK   47  A    between atoms: _118  and  _119
REMARK   48  A    between atoms: _123  and  _125
REMARK   49  A    between atoms: _125  and  _126
REMARK   50  A    between atoms: _125  and  _128
REMARK   51  A    between atoms: _128  and  _129
REMARK   52  A    between atoms: _129  and  _130
REMARK   53  A    between atoms: _133  and  _135
REMARK   54  A    between atoms: _135  and  _136
REMARK   55  A    between atoms: _135  and  _138
REMARK   56  A    between atoms: _138  and  _139
REMARK   57  A    between atoms: _142  and  _144
REMARK   58  A    between atoms: _144  and  _145
REMARK   59  A    between atoms: _144  and  _147
REMARK   60  A    between atoms: _147  and  _148
REMARK   61  A    between atoms: _148  and  _149
REMARK   62  A    between atoms: _151  and  _153
REMARK   63  A    between atoms: _153  and  _154
REMARK   64  A    between atoms: _153  and  _156
REMARK   65  A    between atoms: _156  and  _157
REMARK   66  A    between atoms: _162  and  _164
REMARK   67  A    between atoms: _164  and  _165
REMARK   68  A    between atoms: _164  and  _167
REMARK   69  A    between atoms: _167  and  _168
REMARK   70  A    between atoms: _173  and  _175
REMARK   71  A    between atoms: _175  and  _176
REMARK   72  A    between atoms: _175  and  _178
REMARK   73  A    between atoms: _178  and  _179
REMARK   74  A    between atoms: _184  and  _185
REMARK   75  A    between atoms: _187  and  _189
REMARK   76  A    between atoms: _189  and  _190
REMARK   77  A    between atoms: _189  and  _192
REMARK   78  A    between atoms: _192  and  _193
REMARK   79  A    between atoms: _196  and  _198
REMARK   80  A    between atoms: _198  and  _199
REMARK   81  A    between atoms: _198  and  _201
REMARK   82  A    between atoms: _201  and  _202
REMARK   83  A    between atoms: _204  and  _206
REMARK   84  A    between atoms: _206  and  _207
REMARK   85  A    between atoms: _206  and  _209
REMARK   86  A    between atoms: _211  and  _213
REMARK   87  A    between atoms: _213  and  _214
REMARK   88  A    between atoms: _213  and  _216
REMARK   89  A    between atoms: _218  and  _220
REMARK   90  A    between atoms: _220  and  _221
REMARK   91  A    between atoms: _220  and  _223
REMARK   92  A    between atoms: _223  and  _224
REMARK   93  A    between atoms: _227  and  _229
REMARK   94  A    between atoms: _229  and  _230
REMARK   95  A    between atoms: _229  and  _232
REMARK   96  A    between atoms: _232  and  _233
REMARK   97  A    between atoms: _236  and  _238
REMARK   98  A    between atoms: _238  and  _239
REMARK   99  A    between atoms: _238  and  _241
REMARK  100  A    between atoms: _241  and  _242
REMARK  101  A    between atoms: _252  and  _254
REMARK  102  A    between atoms: _254  and  _255
REMARK  103  A    between atoms: _254  and  _257
REMARK  104  A    between atoms: _257  and  _258
REMARK  105  A    between atoms: _263  and  _264
REMARK  106  A    between atoms: _266  and  _268
REMARK  107  A    between atoms: _268  and  _269
REMARK  108  A    between atoms: _268  and  _271
REMARK  109  A    between atoms: _271  and  _272
REMARK  110  A    between atoms: _272  and  _273
REMARK  111  A    between atoms: _275  and  _277
REMARK  112  A    between atoms: _277  and  _278
REMARK  113  A    between atoms: _277  and  _280
REMARK  114  A    between atoms: _280  and  _281
REMARK  115  A    between atoms: _281  and  _282
REMARK  116  A    between atoms: _282  and  _283
REMARK  117  A    between atoms: _292  and  _294
REMARK  118  A    between atoms: _294  and  _295
REMARK  119  A    between atoms: _294  and  _297
REMARK  120  A    between atoms: _297  and  _298
REMARK  121  A    between atoms: _298  and  _299
REMARK  122  A    between atoms: _304  and  _306
REMARK  123  A    between atoms: _306  and  _307
REMARK  124  A    between atoms: _310  and  _312
REMARK  125  A    between atoms: _312  and  _313
REMARK  126  A    between atoms: _312  and  _315
REMARK  127  A    between atoms: _315  and  _316
REMARK  128  A    between atoms: _316  and  _317
REMARK  129  A    between atoms: _317  and  _318
REMARK  130  A    between atoms: _327  and  _329
REMARK  131  A    between atoms: _329  and  _330
REMARK  132  A    between atoms: _329  and  _332
REMARK  133  A    between atoms: _332  and  _333
REMARK                            x       y       z     vdW  Elec       q    Type
REMARK                         _______ _______ _______ _____ _____    ______ ____
ROOT
ATOM      1  CA  ALA A   1      -7.856  28.355 -32.417  0.00  0.00    +0.133 C 
ATOM      2  CB  ALA A   1      -9.317  28.531 -31.894  0.00  0.00    +0.027 C 
ENDROOT
BRANCH   1   3
ATOM      3  N   ALA A   1      -7.905  27.828 -33.815  0.00  0.00    -0.239 NA
ATOM      4  H   ALA A   1      -8.821  27.595 -34.249  0.00  0.00    +0.142 HD
ENDBRANCH   1   3
BRANCH   1   5
ATOM      5  C   ALA A   1      -7.059  27.448 -31.474  0.00  0.00    +0.224 C 
ATOM      6  O   ALA A   1      -7.265  26.206 -31.445  0.00  0.00    -0.287 OA
ENDBRANCH   1   5
TORSDOF 2
REMARK  Name = ../refined-set-2016/3jzg/3jzg_pocket.pdb
REMARK  133 active torsions:
REMARK  status: ('A' for Active; 'I' for Inactive)
REMARK    1  A    between atoms: _2  and  _3
REMARK    2  A    between atoms: _8  and  _10
REMARK    3  A    between atoms: _10  and  _11
REMARK    4  A    between atoms: _10  and  _13
REMARK    5  A    between atoms: _13  and  _14
REMARK    6  A    between atoms: _20  and  _22
REMARK    7  A    between atoms: _22  and  _23
REMARK    8  A    between atoms: _25  and  _27
REMARK    9  A    between atoms: _27  and  _28
REMARK   10  A    between atoms: _27  and  _30
REMARK   11  A    between atoms: _30  and  _31
REMARK   12  A    between atoms: _36  and  _38
REMARK   13  A    between atoms: _38  and  _39
REMARK   14  A    between atoms: _38  and  _41
REMARK   15  A    between atoms: _41  and  _42
REMARK   16  A    between atoms: _48  and  _50
REMARK   17  A    between atoms: _50  and  _51
REMARK   18  A    between atoms: _50  and  _53
REMARK   19  A    between atoms: _53  and  _54
REMARK   20  A    between atoms: _59  and  _60
REMARK   21  A    between atoms: _62  and  _64
REMARK   22  A    between atoms: _64  and  _65
REMARK   23  A    between atoms: _64  and  _67
REMARK   24  A    between atoms: _67  and  _68
REMARK   25  A    between atoms: _71  and  _73
REMARK   26  A    between atoms: _73  and  _74
REMARK   27  A    between atoms: _76  and  _78
REMARK   28  A    between atoms: _78  and  _79
REMARK   29  A    between atoms: _78  and  _81
REMARK   30  A    between atoms: _81  and  _82
REMARK   31  A    between atoms: _84  and  _86
REMARK   32  A    between atoms: _86  and  _87
REMARK   33  A    between atoms: _90  and  _92
REMARK   34  A    between atoms: _92  and  _93
REMARK   35  A    between atoms: _92  and  _95
REMARK   36  A    between atoms: _95  and  _96
REMARK   37  A    between atoms: _99  and  _101
REMARK   38  A    between atoms: _101  and  _102
REMARK   39  A    between atoms: _101  and  _104
REMARK   40  A    between atoms: _104  and  _105
REMARK   41  A    between atoms: _110  and  _112
REMARK   42  A    between atoms: _112  and  _113
REMARK   43  A    between atoms: _112  and  _115
REMARK   44  A    between atoms: _115  and  _116
REMARK   45  A    between atoms: _116  and  _117
REMARK   46  A    between atoms: _117  and  _118
REMARK   47  A    between atoms: _118  and  _119
REMARK   48  A    between atoms: _123  and  _125
REMARK   49  A    between atoms: _125  and  _126
REMARK   50  A    between atoms: _125  and  _128
REMARK   51  A    between atoms: _128  and  _129
REMARK   52  A    between atoms: _129  and  _130
REMARK   53  A    between atoms: _133  and  _135
REMARK   54  A    between atoms: _135  and  _136
REMARK   55  A    between atoms: _135  and  _138
REMARK   56  A    between atoms: _138  and  _139
REMARK   57  A    between atoms: _142  and  _144
REMARK   58  A    between atoms: _144  and  _145
REMARK   59  A    between atoms: _144  and  _147
REMARK   60  A    between atoms: _147  and  _148
REMARK   61  A    between atoms: _148  and  _149
REMARK   62  A    between atoms: _151  and  _153
REMARK   63  A    between atoms: _153  and  _154
REMARK   64  A    between atoms: _153  and  _156
REMARK   65  A    between atoms: _156  and  _157
REMARK   66  A    between atoms: _162  and  _164
REMARK   67  A    between atoms: _164  and  _165
REMARK   68  A    between atoms: _164  and  _167
REMARK   69  A    between atoms: _167  and  _168
REMARK   70  A    between atoms: _173  and  _175
REMARK   71  A    between atoms: _175  and  _176
REMARK   72  A    between atoms: _175  and  _178
REMARK   73  A    between atoms: _178  and  _179
REMARK   74  A    between atoms: _184  and  _185
REMARK   75  A    between atoms: _187  and  _189
REMARK   76  A    between atoms: _189  and  _190
REMARK   77  A    between atoms: _189  and  _192
REMARK   78  A    between atoms: _192  and  _193
REMARK   79  A    between atoms: _196  and  _198
REMARK   80  A    between atoms: _198  and  _199
REMARK   81  A    between atoms: _198  and  _201
REMARK   82  A    between atoms: _201  and  _202
REMARK   83  A    between atoms: _204  and  _206
REMARK   84  A    between atoms: _206  and  _207
REMARK   85  A    between atoms: _206  and  _209
REMARK   86  A    between atoms: _211  and  _213
REMARK   87  A    between atoms: _213  and  _214
REMARK   88  A    between atoms: _213  and  _216
REMARK   89  A    between atoms: _218  and  _220
REMARK   90  A    between atoms: _220  and  _221
REMARK   91  A    between atoms: _220  and  _223
REMARK   92  A    between atoms: _223  and  _224
REMARK   93  A    between atoms: _227  and  _229
REMARK   94  A    between atoms: _229  and  _230
REMARK   95  A    between atoms: _229  and  _232
REMARK   96  A    between atoms: _232  and  _233
REMARK   97  A    between atoms: _236  and  _238
REMARK   98  A    between atoms: _238  and  _239
REMARK   99  A    between atoms: _238  and  _241
REMARK  100  A    between atoms: _241  and  _242
REMARK  101  A    between atoms: _252  and  _254
REMARK  102  A    between atoms: _254  and  _255
REMARK  103  A    between atoms: _254  and  _257
REMARK  104  A    between atoms: _257  and  _258
REMARK  105  A    between atoms: _263  and  _264
REMARK  106  A    between atoms: _266  and  _268
REMARK  107  A    between atoms: _268  and  _269
REMARK  108  A    between atoms: _268  and  _271
REMARK  109  A    between atoms: _271  and  _272
REMARK  110  A    between atoms: _272  and  _273
REMARK  111  A    between atoms: _275  and  _277
REMARK  112  A    between atoms: _277  and  _278
REMARK  113  A    between atoms: _277  and  _280
REMARK  114  A    between atoms: _280  and  _281
REMARK  115  A    between atoms: _281  and  _282
REMARK  116  A    between atoms: _282  and  _283
REMARK  117  A    between atoms: _292  and  _294
REMARK  118  A    between atoms: _294  and  _295
REMARK  119  A    between atoms: _294  and  _297
REMARK  120  A    between atoms: _297  and  _298
REMARK  121  A    between atoms: _298  and  _299
REMARK  122  A    between atoms: _304  and  _306
REMARK  123  A    between atoms: _306  and  _307
REMARK  124  A    between atoms: _310  and  _312
REMARK  125  A    between atoms: _312  and  _313
REMARK  126  A    between atoms: _312  and  _315
REMARK  127  A    between atoms: _315  and  _316
REMARK  128  A    between atoms: _316  and  _317
REMARK  129  A    between atoms: _317  and  _318
REMARK  130  A    between atoms: _327  and  _329
REMARK  131  A    between atoms: _329  and  _330
REMARK  132  A    between atoms: _329  and  _332
REMARK  133  A    between atoms: _332  and  _333
REMARK                            x       y       z     vdW  Elec       q    Type
REMARK                         _______ _______ _______ _____ _____    ______ ____
ROOT
ATOM      1  NE  ARG A   1     -11.468  26.210 -28.165  0.00  0.00    -0.265 N 
ATOM      2  CZ  ARG A   1     -12.531  27.016 -28.163  0.00  0.00    +0.342 C 
ATOM      3  NH2 ARG A   1     -12.796  27.756 -27.093  0.00  0.00    -0.292 N 
ATOM      4 HH21 ARG A   1     -12.176  27.706 -26.260  0.00  0.00    +0.255 HD
ATOM      5 HH22 ARG A   1     -13.624  28.385 -27.088  0.00  0.00    +0.255 HD
ATOM      6  NH1 ARG A   1     -13.371  27.037 -29.219  0.00  0.00    -0.292 N 
ATOM      7 HH11 ARG A   1     -14.198  27.667 -29.213  0.00  0.00    +0.255 HD
ATOM      8 HH12 ARG A   1     -13.191  26.423 -30.039  0.00  0.00    +0.255 HD
ATOM      9  HE  ARG A   1     -11.311  25.606 -28.997  0.00  0.00    +0.259 HD
ENDROOT
BRANCH   1  10
ATOM     10  CD  ARG A   1     -10.508  26.129 -27.058  0.00  0.00    +0.174 C 
BRANCH  10  11
ATOM     11  CG  ARG A   1      -9.412  25.134 -27.471  0.00  0.00    +0.045 C 
BRANCH  11  12
ATOM     12  CB  ARG A   1      -8.319  25.114 -26.445  0.00  0.00    +0.029 C 
BRANCH  12  13
ATOM     13  CA  ARG A   1      -7.442  26.350 -26.537  0.00  0.00    +0.133 C 
BRANCH  13  14
ATOM     14  N   ARG A   1      -6.608  26.328 -27.755  0.00  0.00    -0.239 NA
ATOM     15  H   ARG A   1      -6.358  25.416 -28.187  0.00  0.00    +0.142 HD
ENDBRANCH  13  14
BRANCH  13  16
ATOM     16  C   ARG A   1      -6.605  26.416 -25.258  0.00  0.00    +0.224 C 
ATOM     17  O   ARG A   1      -7.041  27.001 -24.254  0.00  0.00    -0.287 OA
ENDBRANCH  13  16
ENDBRANCH  12  13
ENDBRANCH  11  12
ENDBRANCH  10  11
ENDBRANCH   1  10
TORSDOF 6
REMARK  Name = ../refined-set-2016/3jzg/3jzg_pocket.pdb
REMARK  133 active torsions:
REMARK  status: ('A' for Active; 'I' for Inactive)
REMARK    1  A    between atoms: _2  and  _3
REMARK    2  A    between atoms: _8  and  _10
REMARK    3  A    between atoms: _10  and  _11
REMARK    4  A    between atoms: _10  and  _13
REMARK    5  A    between atoms: _13  and  _14
REMARK    6  A    between atoms: _20  and  _22
REMARK    7  A    between atoms: _22  and  _23
REMARK    8  A    between atoms: _25  and  _27
REMARK    9  A    between atoms: _27  and  _28
REMARK   10  A    between atoms: _27  and  _30
REMARK   11  A    between atoms: _30  and  _31
REMARK   12  A    between atoms: _36  and  _38
REMARK   13  A    between atoms: _38  and  _39
REMARK   14  A    between atoms: _38  and  _41
REMARK   15  A    between atoms: _41  and  _42
REMARK   16  A    between atoms: _48  and  _50
REMARK   17  A    between atoms: _50  and  _51
REMARK   18  A    between atoms: _50  and  _53
REMARK   19  A    between atoms: _53  and  _54
REMARK   20  A    between atoms: _59  and  _60
REMARK   21  A    between atoms: _62  and  _64
REMARK   22  A    between atoms: _64  and  _65
REMARK   23  A    between atoms: _64  and  _67
REMARK   24  A    between atoms: _67  and  _68
REMARK   25  A    between atoms: _71  and  _73
REMARK   26  A    between atoms: _73  and  _74
REMARK   27  A    between atoms: _76  and  _78
REMARK   28  A    between atoms: _78  and  _79
REMARK   29  A    between atoms: _78  and  _81
REMARK   30  A    between atoms: _81  and  _82
REMARK   31  A    between atoms: _84  and  _86
REMARK   32  A    between atoms: _86  and  _87
REMARK   33  A    between atoms: _90  and  _92
REMARK   34  A    between atoms: _92  and  _93
REMARK   35  A    between atoms: _92  and  _95
REMARK   36  A    between atoms: _95  and  _96
REMARK   37  A    between atoms: _99  and  _101
REMARK   38  A    between atoms: _101  and  _102
REMARK   39  A    between atoms: _101  and  _104
REMARK   40  A    between atoms: _104  and  _105
REMARK   41  A    between atoms: _110  and  _112
REMARK   42  A    between atoms: _112  and  _113
REMARK   43  A    between atoms: _112  and  _115
REMARK   44  A    between atoms: _115  and  _116
REMARK   45  A    between atoms: _116  and  _117
REMARK   46  A    between atoms: _117  and  _118
REMARK   47  A    between atoms: _118  and  _119
REMARK   48  A    between atoms: _123  and  _125
REMARK   49  A    between atoms: _125  and  _126
REMARK   50  A    between atoms: _125  and  _128
REMARK   51  A    between atoms: _128  and  _129
REMARK   52  A    between atoms: _129  and  _130
REMARK   53  A    between atoms: _133  and  _135
REMARK   54  A    between atoms: _135  and  _136
REMARK   55  A    between atoms: _135  and  _138
REMARK   56  A    between atoms: _138  and  _139
REMARK   57  A    between atoms: _142  and  _144
REMARK   58  A    between atoms: _144  and  _145
REMARK   59  A    between atoms: _144  and  _147
REMARK   60  A    between atoms: _147  and  _148
REMARK   61  A    between atoms: _148  and  _149
REMARK   62  A    between atoms: _151  and  _153
REMARK   63  A    between atoms: _153  and  _154
REMARK   64  A    between atoms: _153  and  _156
REMARK   65  A    between atoms: _156  and  _157
REMARK   66  A    between atoms: _162  and  _164
REMARK   67  A    between atoms: _164  and  _165
REMARK   68  A    between atoms: _164  and  _167
REMARK   69  A    between atoms: _167  and  _168
REMARK   70  A    between atoms: _173  and  _175
REMARK   71  A    between atoms: _175  and  _176
REMARK   72  A    between atoms: _175  and  _178
REMARK   73  A    between atoms: _178  and  _179
REMARK   74  A    between atoms: _184  and  _185
REMARK   75  A    between atoms: _187  and  _189
REMARK   76  A    between atoms: _189  and  _190
REMARK   77  A    between atoms: _189  and  _192
REMARK   78  A    between atoms: _192  and  _193
REMARK   79  A    between atoms: _196  and  _198
REMARK   80  A    between atoms: _198  and  _199
REMARK   81  A    between atoms: _198  and  _201
REMARK   82  A    between atoms: _201  and  _202
REMARK   83  A    between atoms: _204  and  _206
REMARK   84  A    between atoms: _206  and  _207
REMARK   85  A    between atoms: _206  and  _209
REMARK   86  A    between atoms: _211  and  _213
REMARK   87  A    between atoms: _213  and  _214
REMARK   88  A    between atoms: _213  and  _216
REMARK   89  A    between atoms: _218  and  _220
REMARK   90  A    between atoms: _220  and  _221
REMARK   91  A    between atoms: _220  and  _223
REMARK   92  A    between atoms: _223  and  _224
REMARK   93  A    between atoms: _227  and  _229
REMARK   94  A    between atoms: _229  and  _230
REMARK   95  A    between atoms: _229  and  _232
REMARK   96  A    between atoms: _232  and  _233
REMARK   97  A    between atoms: _236  and  _238
REMARK   98  A    between atoms: _238  and  _239
REMARK   99  A    between atoms: _238  and  _241
REMARK  100  A    between atoms: _241  and  _242
REMARK  101  A    between atoms: _252  and  _254
REMARK  102  A    between atoms: _254  and  _255
REMARK  103  A    between atoms: _254  and  _257
REMARK  104  A    between atoms: _257  and  _258
REMARK  105  A    between atoms: _263  and  _264
REMARK  106  A    between atoms: _266  and  _268
REMARK  107  A    between atoms: _268  and  _269
REMARK  108  A    between atoms: _268  and  _271
REMARK  109  A    between atoms: _271  and  _272
REMARK  110  A    between atoms: _272  and  _273
REMARK  111  A    between atoms: _275  and  _277
REMARK  112  A    between atoms: _277  and  _278
REMARK  113  A    between atoms: _277  and  _280
REMARK  114  A    between atoms: _280  and  _281
REMARK  115  A    between atoms: _281  and  _282
REMARK  116  A    between atoms: _282  and  _283
REMARK  117  A    between atoms: _292  and  _294
REMARK  118  A    between atoms: _294  and  _295
REMARK  119  A    between atoms: _294  and  _297
REMARK  120  A    between atoms: _297  and  _298
REMARK  121  A    between atoms: _298  and  _299
REMARK  122  A    between atoms: _304  and  _306
REMARK  123  A    between atoms: _306  and  _307
REMARK  124  A    between atoms: _310  and  _312
REMARK  125  A    between atoms: _312  and  _313
REMARK  126  A    between atoms: _312  and  _315
REMARK  127  A    between atoms: _315  and  _316
REMARK  128  A    between atoms: _316  and  _317
REMARK  129  A    between atoms: _317  and  _318
REMARK  130  A    between atoms: _327  and  _329
REMARK  131  A    between atoms: _329  and  _330
REMARK  132  A    between atoms: _329  and  _332
REMARK  133  A    between atoms: _332  and  _333
REMARK                            x       y       z     vdW  Elec       q    Type
REMARK                         _______ _______ _______ _____ _____    ______ ____
ROOT
ATOM      1  CA  ASP A   1      -9.804  23.442 -32.372  0.00  0.00    +0.144 C 
ENDROOT
BRANCH   1   2
ATOM      2  N   ASP A   1      -8.459  23.789 -32.045  0.00  0.00    -0.239 NA
ATOM      3  H   ASP A   1      -8.167  24.778 -32.177  0.00  0.00    +0.142 HD
ENDBRANCH   1   2
BRANCH   1   4
ATOM      4  C   ASP A   1      -9.949  22.449 -33.522  0.00  0.00    +0.225 C 
ATOM      5  O   ASP A   1     -11.021  21.874 -33.644  0.00  0.00    -0.287 OA
ENDBRANCH   1   4
BRANCH   1   6
ATOM      6  CB  ASP A   1     -10.662  24.672 -32.675  0.00  0.00    +0.139 C 
BRANCH   6   7
ATOM      7  CG  ASP A   1     -11.398  25.146 -31.458  0.00  0.00    +0.367 C 
ATOM      8  OD2 ASP A   1     -10.989  24.767 -30.358  0.00  0.00    -0.246 OA
ATOM      9  OD1 ASP A   1     -12.407  25.853 -31.555  0.00  0.00    -0.246 OA
ENDBRANCH   6   7
ENDBRANCH   1   6
TORSDOF 4
REMARK  Name = ../refined-set-2016/3jzg/3jzg_pocket.pdb
REMARK  133 active torsions:
REMARK  status: ('A' for Active; 'I' for Inactive)
REMARK    1  A    between atoms: _2  and  _3
REMARK    2  A    between atoms: _8  and  _10
REMARK    3  A    between atoms: _10  and  _11
REMARK    4  A    between atoms: _10  and  _13
REMARK    5  A    between atoms: _13  and  _14
REMARK    6  A    between atoms: _20  and  _22
REMARK    7  A    between atoms: _22  and  _23
REMARK    8  A    between atoms: _25  and  _27
REMARK    9  A    between atoms: _27  and  _28
REMARK   10  A    between atoms: _27  and  _30
REMARK   11  A    between atoms: _30  and  _31
REMARK   12  A    between atoms: _36  and  _38
REMARK   13  A    between atoms: _38  and  _39
REMARK   14  A    between atoms: _38  and  _41
REMARK   15  A    between atoms: _41  and  _42
REMARK   16  A    between atoms: _48  and  _50
REMARK   17  A    between atoms: _50  and  _51
REMARK   18  A    between atoms: _50  and  _53
REMARK   19  A    between atoms: _53  and  _54
REMARK   20  A    between atoms: _59  and  _60
REMARK   21  A    between atoms: _62  and  _64
REMARK   22  A    between atoms: _64  and  _65
REMARK   23  A    between atoms: _64  and  _67
REMARK   24  A    between atoms: _67  and  _68
REMARK   25  A    between atoms: _71  and  _73
REMARK   26  A    between atoms: _73  and  _74
REMARK   27  A    between atoms: _76  and  _78
REMARK   28  A    between atoms: _78  and  _79
REMARK   29  A    between atoms: _78  and  _81
REMARK   30  A    between atoms: _81  and  _82
REMARK   31  A    between atoms: _84  and  _86
REMARK   32  A    between atoms: _86  and  _87
REMARK   33  A    between atoms: _90  and  _92
REMARK   34  A    between atoms: _92  and  _93
REMARK   35  A    between atoms: _92  and  _95
REMARK   36  A    between atoms: _95  and  _96
REMARK   37  A    between atoms: _99  and  _101
REMARK   38  A    between atoms: _101  and  _102
REMARK   39  A    between atoms: _101  and  _104
REMARK   40  A    between atoms: _104  and  _105
REMARK   41  A    between atoms: _110  and  _112
REMARK   42  A    between atoms: _112  and  _113
REMARK   43  A    between atoms: _112  and  _115
REMARK   44  A    between atoms: _115  and  _116
REMARK   45  A    between atoms: _116  and  _117
REMARK   46  A    between atoms: _117  and  _118
REMARK   47  A    between atoms: _118  and  _119
REMARK   48  A    between atoms: _123  and  _125
REMARK   49  A    between atoms: _125  and  _126
REMARK   50  A    between atoms: _125  and  _128
REMARK   51  A    between atoms: _128  and  _129
REMARK   52  A    between atoms: _129  and  _130
REMARK   53  A    between atoms: _133  and  _135
REMARK   54  A    between atoms: _135  and  _136
REMARK   55  A    between atoms: _135  and  _138
REMARK   56  A    between atoms: _138  and  _139
REMARK   57  A    between atoms: _142  and  _144
REMARK   58  A    between atoms: _144  and  _145
REMARK   59  A    between atoms: _144  and  _147
REMARK   60  A    between atoms: _147  and  _148
REMARK   61  A    between atoms: _148  and  _149
REMARK   62  A    between atoms: _151  and  _153
REMARK   63  A    between atoms: _153  and  _154
REMARK   64  A    between atoms: _153  and  _156
REMARK   65  A    between atoms: _156  and  _157
REMARK   66  A    between atoms: _162  and  _164
REMARK   67  A    between atoms: _164  and  _165
REMARK   68  A    between atoms: _164  and  _167
REMARK   69  A    between atoms: _167  and  _168
REMARK   70  A    between atoms: _173  and  _175
REMARK   71  A    between atoms: _175  and  _176
REMARK   72  A    between atoms: _175  and  _178
REMARK   73  A    between atoms: _178  and  _179
REMARK   74  A    between atoms: _184  and  _185
REMARK   75  A    between atoms: _187  and  _189
REMARK   76  A    between atoms: _189  and  _190
REMARK   77  A    between atoms: _189  and  _192
REMARK   78  A    between atoms: _192  and  _193
REMARK   79  A    between atoms: _196  and  _198
REMARK   80  A    between atoms: _198  and  _199
REMARK   81  A    between atoms: _198  and  _201
REMARK   82  A    between atoms: _201  and  _202
REMARK   83  A    between atoms: _204  and  _206
REMARK   84  A    between atoms: _206  and  _207
REMARK   85  A    between atoms: _206  and  _209
REMARK   86  A    between atoms: _211  and  _213
REMARK   87  A    between atoms: _213  and  _214
REMARK   88  A    between atoms: _213  and  _216
REMARK   89  A    between atoms: _218  and  _220
REMARK   90  A    between atoms: _220  and  _221
REMARK   91  A    between atoms: _220  and  _223
REMARK   92  A    between atoms: _223  and  _224
REMARK   93  A    between atoms: _227  and  _229
REMARK   94  A    between atoms: _229  and  _230
REMARK   95  A    between atoms: _229  and  _232
REMARK   96  A    between atoms: _232  and  _233
REMARK   97  A    between atoms: _236  and  _238
REMARK   98  A    between atoms: _238  and  _239
REMARK   99  A    between atoms: _238  and  _241
REMARK  100  A    between atoms: _241  and  _242
REMARK  101  A    between atoms: _252  and  _254
REMARK  102  A    between atoms: _254  and  _255
REMARK  103  A    between atoms: _254  and  _257
REMARK  104  A    between atoms: _257  and  _258
REMARK  105  A    between atoms: _263  and  _264
REMARK  106  A    between atoms: _266  and  _268
REMARK  107  A    between atoms: _268  and  _269
REMARK  108  A    between atoms: _268  and  _271
REMARK  109  A    between atoms: _271  and  _272
REMARK  110  A    between atoms: _272  and  _273
REMARK  111  A    between atoms: _275  and  _277
REMARK  112  A    between atoms: _277  and  _278
REMARK  113  A    between atoms: _277  and  _280
REMARK  114  A    between atoms: _280  and  _281
REMARK  115  A    between atoms: _281  and  _282
REMARK  116  A    between atoms: _282  and  _283
REMARK  117  A    between atoms: _292  and  _294
REMARK  118  A    between atoms: _294  and  _295
REMARK  119  A    between atoms: _294  and  _297
REMARK  120  A    between atoms: _297  and  _298
REMARK  121  A    between atoms: _298  and  _299
REMARK  122  A    between atoms: _304  and  _306
REMARK  123  A    between atoms: _306  and  _307
REMARK  124  A    between atoms: _310  and  _312
REMARK  125  A    between atoms: _312  and  _313
REMARK  126  A    between atoms: _312  and  _315
REMARK  127  A    between atoms: _315  and  _316
REMARK  128  A    between atoms: _316  and  _317
REMARK  129  A    between atoms: _317  and  _318
REMARK  130  A    between atoms: _327  and  _329
REMARK  131  A    between atoms: _329  and  _330
REMARK  132  A    between atoms: _329  and  _332
REMARK  133  A    between atoms: _332  and  _333
REMARK                            x       y       z     vdW  Elec       q    Type
REMARK                         _______ _______ _______ _____ _____    ______ ____
ROOT
ATOM      1  O   HOH     1     -13.580  18.196 -28.443  0.00  0.00    +0.000 OA
ENDROOT
TORSDOF 0
REMARK  Name = ../refined-set-2016/3jzg/3jzg_pocket.pdb
REMARK  133 active torsions:
REMARK  status: ('A' for Active; 'I' for Inactive)
REMARK    1  A    between atoms: _2  and  _3
REMARK    2  A    between atoms: _8  and  _10
REMARK    3  A    between atoms: _10  and  _11
REMARK    4  A    between atoms: _10  and  _13
REMARK    5  A    between atoms: _13  and  _14
REMARK    6  A    between atoms: _20  and  _22
REMARK    7  A    between atoms: _22  and  _23
REMARK    8  A    between atoms: _25  and  _27
REMARK    9  A    between atoms: _27  and  _28
REMARK   10  A    between atoms: _27  and  _30
REMARK   11  A    between atoms: _30  and  _31
REMARK   12  A    between atoms: _36  and  _38
REMARK   13  A    between atoms: _38  and  _39
REMARK   14  A    between atoms: _38  and  _41
REMARK   15  A    between atoms: _41  and  _42
REMARK   16  A    between atoms: _48  and  _50
REMARK   17  A    between atoms: _50  and  _51
REMARK   18  A    between atoms: _50  and  _53
REMARK   19  A    between atoms: _53  and  _54
REMARK   20  A    between atoms: _59  and  _60
REMARK   21  A    between atoms: _62  and  _64
REMARK   22  A    between atoms: _64  and  _65
REMARK   23  A    between atoms: _64  and  _67
REMARK   24  A    between atoms: _67  and  _68
REMARK   25  A    between atoms: _71  and  _73
REMARK   26  A    between atoms: _73  and  _74
REMARK   27  A    between atoms: _76  and  _78
REMARK   28  A    between atoms: _78  and  _79
REMARK   29  A    between atoms: _78  and  _81
REMARK   30  A    between atoms: _81  and  _82
REMARK   31  A    between atoms: _84  and  _86
REMARK   32  A    between atoms: _86  and  _87
REMARK   33  A    between atoms: _90  and  _92
REMARK   34  A    between atoms: _92  and  _93
REMARK   35  A    between atoms: _92  and  _95
REMARK   36  A    between atoms: _95  and  _96
REMARK   37  A    between atoms: _99  and  _101
REMARK   38  A    between atoms: _101  and  _102
REMARK   39  A    between atoms: _101  and  _104
REMARK   40  A    between atoms: _104  and  _105
REMARK   41  A    between atoms: _110  and  _112
REMARK   42  A    between atoms: _112  and  _113
REMARK   43  A    between atoms: _112  and  _115
REMARK   44  A    between atoms: _115  and  _116
REMARK   45  A    between atoms: _116  and  _117
REMARK   46  A    between atoms: _117  and  _118
REMARK   47  A    between atoms: _118  and  _119
REMARK   48  A    between atoms: _123  and  _125
REMARK   49  A    between atoms: _125  and  _126
REMARK   50  A    between atoms: _125  and  _128
REMARK   51  A    between atoms: _128  and  _129
REMARK   52  A    between atoms: _129  and  _130
REMARK   53  A    between atoms: _133  and  _135
REMARK   54  A    between atoms: _135  and  _136
REMARK   55  A    between atoms: _135  and  _138
REMARK   56  A    between atoms: _138  and  _139
REMARK   57  A    between atoms: _142  and  _144
REMARK   58  A    between atoms: _144  and  _145
REMARK   59  A    between atoms: _144  and  _147
REMARK   60  A    between atoms: _147  and  _148
REMARK   61  A    between atoms: _148  and  _149
REMARK   62  A    between atoms: _151  and  _153
REMARK   63  A    between atoms: _153  and  _154
REMARK   64  A    between atoms: _153  and  _156
REMARK   65  A    between atoms: _156  and  _157
REMARK   66  A    between atoms: _162  and  _164
REMARK   67  A    between atoms: _164  and  _165
REMARK   68  A    between atoms: _164  and  _167
REMARK   69  A    between atoms: _167  and  _168
REMARK   70  A    between atoms: _173  and  _175
REMARK   71  A    between atoms: _175  and  _176
REMARK   72  A    between atoms: _175  and  _178
REMARK   73  A    between atoms: _178  and  _179
REMARK   74  A    between atoms: _184  and  _185
REMARK   75  A    between atoms: _187  and  _189
REMARK   76  A    between atoms: _189  and  _190
REMARK   77  A    between atoms: _189  and  _192
REMARK   78  A    between atoms: _192  and  _193
REMARK   79  A    between atoms: _196  and  _198
REMARK   80  A    between atoms: _198  and  _199
REMARK   81  A    between atoms: _198  and  _201
REMARK   82  A    between atoms: _201  and  _202
REMARK   83  A    between atoms: _204  and  _206
REMARK   84  A    between atoms: _206  and  _207
REMARK   85  A    between atoms: _206  and  _209
REMARK   86  A    between atoms: _211  and  _213
REMARK   87  A    between atoms: _213  and  _214
REMARK   88  A    between atoms: _213  and  _216
REMARK   89  A    between atoms: _218  and  _220
REMARK   90  A    between atoms: _220  and  _221
REMARK   91  A    between atoms: _220  and  _223
REMARK   92  A    between atoms: _223  and  _224
REMARK   93  A    between atoms: _227  and  _229
REMARK   94  A    between atoms: _229  and  _230
REMARK   95  A    between atoms: _229  and  _232
REMARK   96  A    between atoms: _232  and  _233
REMARK   97  A    between atoms: _236  and  _238
REMARK   98  A    between atoms: _238  and  _239
REMARK   99  A    between atoms: _238  and  _241
REMARK  100  A    between atoms: _241  and  _242
REMARK  101  A    between atoms: _252  and  _254
REMARK  102  A    between atoms: _254  and  _255
REMARK  103  A    between atoms: _254  and  _257
REMARK  104  A    between atoms: _257  and  _258
REMARK  105  A    between atoms: _263  and  _264
REMARK  106  A    between atoms: _266  and  _268
REMARK  107  A    between atoms: _268  and  _269
REMARK  108  A    between atoms: _268  and  _271
REMARK  109  A    between atoms: _271  and  _272
REMARK  110  A    between atoms: _272  and  _273
REMARK  111  A    between atoms: _275  and  _277
REMARK  112  A    between atoms: _277  and  _278
REMARK  113  A    between atoms: _277  and  _280
REMARK  114  A    between atoms: _280  and  _281
REMARK  115  A    between atoms: _281  and  _282
REMARK  116  A    between atoms: _282  and  _283
REMARK  117  A    between atoms: _292  and  _294
REMARK  118  A    between atoms: _294  and  _295
REMARK  119  A    between atoms: _294  and  _297
REMARK  120  A    between atoms: _297  and  _298
REMARK  121  A    between atoms: _298  and  _299
REMARK  122  A    between atoms: _304  and  _306
REMARK  123  A    between atoms: _306  and  _307
REMARK  124  A    between atoms: _310  and  _312
REMARK  125  A    between atoms: _312  and  _313
REMARK  126  A    between atoms: _312  and  _315
REMARK  127  A    between atoms: _315  and  _316
REMARK  128  A    between atoms: _316  and  _317
REMARK  129  A    between atoms: _317  and  _318
REMARK  130  A    between atoms: _327  and  _329
REMARK  131  A    between atoms: _329  and  _330
REMARK  132  A    between atoms: _329  and  _332
REMARK  133  A    between atoms: _332  and  _333
REMARK                            x       y       z     vdW  Elec       q    Type
REMARK                         _______ _______ _______ _____ _____    ______ ____
ROOT
ATOM      1  O   HOH     1     -10.254  27.497 -35.327  0.00  0.00    +0.000 OA
ENDROOT
TORSDOF 0
REMARK  Name = ../refined-set-2016/3jzg/3jzg_pocket.pdb
REMARK  133 active torsions:
REMARK  status: ('A' for Active; 'I' for Inactive)
REMARK    1  A    between atoms: _2  and  _3
REMARK    2  A    between atoms: _8  and  _10
REMARK    3  A    between atoms: _10  and  _11
REMARK    4  A    between atoms: _10  and  _13
REMARK    5  A    between atoms: _13  and  _14
REMARK    6  A    between atoms: _20  and  _22
REMARK    7  A    between atoms: _22  and  _23
REMARK    8  A    between atoms: _25  and  _27
REMARK    9  A    between atoms: _27  and  _28
REMARK   10  A    between atoms: _27  and  _30
REMARK   11  A    between atoms: _30  and  _31
REMARK   12  A    between atoms: _36  and  _38
REMARK   13  A    between atoms: _38  and  _39
REMARK   14  A    between atoms: _38  and  _41
REMARK   15  A    between atoms: _41  and  _42
REMARK   16  A    between atoms: _48  and  _50
REMARK   17  A    between atoms: _50  and  _51
REMARK   18  A    between atoms: _50  and  _53
REMARK   19  A    between atoms: _53  and  _54
REMARK   20  A    between atoms: _59  and  _60
REMARK   21  A    between atoms: _62  and  _64
REMARK   22  A    between atoms: _64  and  _65
REMARK   23  A    between atoms: _64  and  _67
REMARK   24  A    between atoms: _67  and  _68
REMARK   25  A    between atoms: _71  and  _73
REMARK   26  A    between atoms: _73  and  _74
REMARK   27  A    between atoms: _76  and  _78
REMARK   28  A    between atoms: _78  and  _79
REMARK   29  A    between atoms: _78  and  _81
REMARK   30  A    between atoms: _81  and  _82
REMARK   31  A    between atoms: _84  and  _86
REMARK   32  A    between atoms: _86  and  _87
REMARK   33  A    between atoms: _90  and  _92
REMARK   34  A    between atoms: _92  and  _93
REMARK   35  A    between atoms: _92  and  _95
REMARK   36  A    between atoms: _95  and  _96
REMARK   37  A    between atoms: _99  and  _101
REMARK   38  A    between atoms: _101  and  _102
REMARK   39  A    between atoms: _101  and  _104
REMARK   40  A    between atoms: _104  and  _105
REMARK   41  A    between atoms: _110  and  _112
REMARK   42  A    between atoms: _112  and  _113
REMARK   43  A    between atoms: _112  and  _115
REMARK   44  A    between atoms: _115  and  _116
REMARK   45  A    between atoms: _116  and  _117
REMARK   46  A    between atoms: _117  and  _118
REMARK   47  A    between atoms: _118  and  _119
REMARK   48  A    between atoms: _123  and  _125
REMARK   49  A    between atoms: _125  and  _126
REMARK   50  A    between atoms: _125  and  _128
REMARK   51  A    between atoms: _128  and  _129
REMARK   52  A    between atoms: _129  and  _130
REMARK   53  A    between atoms: _133  and  _135
REMARK   54  A    between atoms: _135  and  _136
REMARK   55  A    between atoms: _135  and  _138
REMARK   56  A    between atoms: _138  and  _139
REMARK   57  A    between atoms: _142  and  _144
REMARK   58  A    between atoms: _144  and  _145
REMARK   59  A    between atoms: _144  and  _147
REMARK   60  A    between atoms: _147  and  _148
REMARK   61  A    between atoms: _148  and  _149
REMARK   62  A    between atoms: _151  and  _153
REMARK   63  A    between atoms: _153  and  _154
REMARK   64  A    between atoms: _153  and  _156
REMARK   65  A    between atoms: _156  and  _157
REMARK   66  A    between atoms: _162  and  _164
REMARK   67  A    between atoms: _164  and  _165
REMARK   68  A    between atoms: _164  and  _167
REMARK   69  A    between atoms: _167  and  _168
REMARK   70  A    between atoms: _173  and  _175
REMARK   71  A    between atoms: _175  and  _176
REMARK   72  A    between atoms: _175  and  _178
REMARK   73  A    between atoms: _178  and  _179
REMARK   74  A    between atoms: _184  and  _185
REMARK   75  A    between atoms: _187  and  _189
REMARK   76  A    between atoms: _189  and  _190
REMARK   77  A    between atoms: _189  and  _192
REMARK   78  A    between atoms: _192  and  _193
REMARK   79  A    between atoms: _196  and  _198
REMARK   80  A    between atoms: _198  and  _199
REMARK   81  A    between atoms: _198  and  _201
REMARK   82  A    between atoms: _201  and  _202
REMARK   83  A    between atoms: _204  and  _206
REMARK   84  A    between atoms: _206  and  _207
REMARK   85  A    between atoms: _206  and  _209
REMARK   86  A    between atoms: _211  and  _213
REMARK   87  A    between atoms: _213  and  _214
REMARK   88  A    between atoms: _213  and  _216
REMARK   89  A    between atoms: _218  and  _220
REMARK   90  A    between atoms: _220  and  _221
REMARK   91  A    between atoms: _220  and  _223
REMARK   92  A    between atoms: _223  and  _224
REMARK   93  A    between atoms: _227  and  _229
REMARK   94  A    between atoms: _229  and  _230
REMARK   95  A    between atoms: _229  and  _232
REMARK   96  A    between atoms: _232  and  _233
REMARK   97  A    between atoms: _236  and  _238
REMARK   98  A    between atoms: _238  and  _239
REMARK   99  A    between atoms: _238  and  _241
REMARK  100  A    between atoms: _241  and  _242
REMARK  101  A    between atoms: _252  and  _254
REMARK  102  A    between atoms: _254  and  _255
REMARK  103  A    between atoms: _254  and  _257
REMARK  104  A    between atoms: _257  and  _258
REMARK  105  A    between atoms: _263  and  _264
REMARK  106  A    between atoms: _266  and  _268
REMARK  107  A    between atoms: _268  and  _269
REMARK  108  A    between atoms: _268  and  _271
REMARK  109  A    between atoms: _271  and  _272
REMARK  110  A    between atoms: _272  and  _273
REMARK  111  A    between atoms: _275  and  _277
REMARK  112  A    between atoms: _277  and  _278
REMARK  113  A    between atoms: _277  and  _280
REMARK  114  A    between atoms: _280  and  _281
REMARK  115  A    between atoms: _281  and  _282
REMARK  116  A    between atoms: _282  and  _283
REMARK  117  A    between atoms: _292  and  _294
REMARK  118  A    between atoms: _294  and  _295
REMARK  119  A    between atoms: _294  and  _297
REMARK  120  A    between atoms: _297  and  _298
REMARK  121  A    between atoms: _298  and  _299
REMARK  122  A    between atoms: _304  and  _306
REMARK  123  A    between atoms: _306  and  _307
REMARK  124  A    between atoms: _310  and  _312
REMARK  125  A    between atoms: _312  and  _313
REMARK  126  A    between atoms: _312  and  _315
REMARK  127  A    between atoms: _315  and  _316
REMARK  128  A    between atoms: _316  and  _317
REMARK  129  A    between atoms: _317  and  _318
REMARK  130  A    between atoms: _327  and  _329
REMARK  131  A    between atoms: _329  and  _330
REMARK  132  A    between atoms: _329  and  _332
REMARK  133  A    between atoms: _332  and  _333
REMARK                            x       y       z     vdW  Elec       q    Type
REMARK                         _______ _______ _______ _____ _____    ______ ____
ROOT
ATOM      1  O   HOH     1     -11.166  34.253 -24.210  0.00  0.00    +0.000 OA
ENDROOT
TORSDOF 0
REMARK  Name = ../refined-set-2016/3jzg/3jzg_pocket.pdb
REMARK  133 active torsions:
REMARK  status: ('A' for Active; 'I' for Inactive)
REMARK    1  A    between atoms: _2  and  _3
REMARK    2  A    between atoms: _8  and  _10
REMARK    3  A    between atoms: _10  and  _11
REMARK    4  A    between atoms: _10  and  _13
REMARK    5  A    between atoms: _13  and  _14
REMARK    6  A    between atoms: _20  and  _22
REMARK    7  A    between atoms: _22  and  _23
REMARK    8  A    between atoms: _25  and  _27
REMARK    9  A    between atoms: _27  and  _28
REMARK   10  A    between atoms: _27  and  _30
REMARK   11  A    between atoms: _30  and  _31
REMARK   12  A    between atoms: _36  and  _38
REMARK   13  A    between atoms: _38  and  _39
REMARK   14  A    between atoms: _38  and  _41
REMARK   15  A    between atoms: _41  and  _42
REMARK   16  A    between atoms: _48  and  _50
REMARK   17  A    between atoms: _50  and  _51
REMARK   18  A    between atoms: _50  and  _53
REMARK   19  A    between atoms: _53  and  _54
REMARK   20  A    between atoms: _59  and  _60
REMARK   21  A    between atoms: _62  and  _64
REMARK   22  A    between atoms: _64  and  _65
REMARK   23  A    between atoms: _64  and  _67
REMARK   24  A    between atoms: _67  and  _68
REMARK   25  A    between atoms: _71  and  _73
REMARK   26  A    between atoms: _73  and  _74
REMARK   27  A    between atoms: _76  and  _78
REMARK   28  A    between atoms: _78  and  _79
REMARK   29  A    between atoms: _78  and  _81
REMARK   30  A    between atoms: _81  and  _82
REMARK   31  A    between atoms: _84  and  _86
REMARK   32  A    between atoms: _86  and  _87
REMARK   33  A    between atoms: _90  and  _92
REMARK   34  A    between atoms: _92  and  _93
REMARK   35  A    between atoms: _92  and  _95
REMARK   36  A    between atoms: _95  and  _96
REMARK   37  A    between atoms: _99  and  _101
REMARK   38  A    between atoms: _101  and  _102
REMARK   39  A    between atoms: _101  and  _104
REMARK   40  A    between atoms: _104  and  _105
REMARK   41  A    between atoms: _110  and  _112
REMARK   42  A    between atoms: _112  and  _113
REMARK   43  A    between atoms: _112  and  _115
REMARK   44  A    between atoms: _115  and  _116
REMARK   45  A    between atoms: _116  and  _117
REMARK   46  A    between atoms: _117  and  _118
REMARK   47  A    between atoms: _118  and  _119
REMARK   48  A    between atoms: _123  and  _125
REMARK   49  A    between atoms: _125  and  _126
REMARK   50  A    between atoms: _125  and  _128
REMARK   51  A    between atoms: _128  and  _129
REMARK   52  A    between atoms: _129  and  _130
REMARK   53  A    between atoms: _133  and  _135
REMARK   54  A    between atoms: _135  and  _136
REMARK   55  A    between atoms: _135  and  _138
REMARK   56  A    between atoms: _138  and  _139
REMARK   57  A    between atoms: _142  and  _144
REMARK   58  A    between atoms: _144  and  _145
REMARK   59  A    between atoms: _144  and  _147
REMARK   60  A    between atoms: _147  and  _148
REMARK   61  A    between atoms: _148  and  _149
REMARK   62  A    between atoms: _151  and  _153
REMARK   63  A    between atoms: _153  and  _154
REMARK   64  A    between atoms: _153  and  _156
REMARK   65  A    between atoms: _156  and  _157
REMARK   66  A    between atoms: _162  and  _164
REMARK   67  A    between atoms: _164  and  _165
REMARK   68  A    between atoms: _164  and  _167
REMARK   69  A    between atoms: _167  and  _168
REMARK   70  A    between atoms: _173  and  _175
REMARK   71  A    between atoms: _175  and  _176
REMARK   72  A    between atoms: _175  and  _178
REMARK   73  A    between atoms: _178  and  _179
REMARK   74  A    between atoms: _184  and  _185
REMARK   75  A    between atoms: _187  and  _189
REMARK   76  A    between atoms: _189  and  _190
REMARK   77  A    between atoms: _189  and  _192
REMARK   78  A    between atoms: _192  and  _193
REMARK   79  A    between atoms: _196  and  _198
REMARK   80  A    between atoms: _198  and  _199
REMARK   81  A    between atoms: _198  and  _201
REMARK   82  A    between atoms: _201  and  _202
REMARK   83  A    between atoms: _204  and  _206
REMARK   84  A    between atoms: _206  and  _207
REMARK   85  A    between atoms: _206  and  _209
REMARK   86  A    between atoms: _211  and  _213
REMARK   87  A    between atoms: _213  and  _214
REMARK   88  A    between atoms: _213  and  _216
REMARK   89  A    between atoms: _218  and  _220
REMARK   90  A    between atoms: _220  and  _221
REMARK   91  A    between atoms: _220  and  _223
REMARK   92  A    between atoms: _223  and  _224
REMARK   93  A    between atoms: _227  and  _229
REMARK   94  A    between atoms: _229  and  _230
REMARK   95  A    between atoms: _229  and  _232
REMARK   96  A    between atoms: _232  and  _233
REMARK   97  A    between atoms: _236  and  _238
REMARK   98  A    between atoms: _238  and  _239
REMARK   99  A    between atoms: _238  and  _241
REMARK  100  A    between atoms: _241  and  _242
REMARK  101  A    between atoms: _252  and  _254
REMARK  102  A    between atoms: _254  and  _255
REMARK  103  A    between atoms: _254  and  _257
REMARK  104  A    between atoms: _257  and  _258
REMARK  105  A    between atoms: _263  and  _264
REMARK  106  A    between atoms: _266  and  _268
REMARK  107  A    between atoms: _268  and  _269
REMARK  108  A    between atoms: _268  and  _271
REMARK  109  A    between atoms: _271  and  _272
REMARK  110  A    between atoms: _272  and  _273
REMARK  111  A    between atoms: _275  and  _277
REMARK  112  A    between atoms: _277  and  _278
REMARK  113  A    between atoms: _277  and  _280
REMARK  114  A    between atoms: _280  and  _281
REMARK  115  A    between atoms: _281  and  _282
REMARK  116  A    between atoms: _282  and  _283
REMARK  117  A    between atoms: _292  and  _294
REMARK  118  A    between atoms: _294  and  _295
REMARK  119  A    between atoms: _294  and  _297
REMARK  120  A    between atoms: _297  and  _298
REMARK  121  A    between atoms: _298  and  _299
REMARK  122  A    between atoms: _304  and  _306
REMARK  123  A    between atoms: _306  and  _307
REMARK  124  A    between atoms: _310  and  _312
REMARK  125  A    between atoms: _312  and  _313
REMARK  126  A    between atoms: _312  and  _315
REMARK  127  A    between atoms: _315  and  _316
REMARK  128  A    between atoms: _316  and  _317
REMARK  129  A    between atoms: _317  and  _318
REMARK  130  A    between atoms: _327  and  _329
REMARK  131  A    between atoms: _329  and  _330
REMARK  132  A    between atoms: _329  and  _332
REMARK  133  A    between atoms: _332  and  _333
REMARK                            x       y       z     vdW  Elec       q    Type
REMARK                         _______ _______ _______ _____ _____    ______ ____
ROOT
ATOM      1  O   HOH     1      -9.238  23.054 -20.682  0.00  0.00    +0.000 OA
ENDROOT
TORSDOF 0
REMARK  Name = ../refined-set-2016/3jzg/3jzg_pocket.pdb
REMARK  133 active torsions:
REMARK  status: ('A' for Active; 'I' for Inactive)
REMARK    1  A    between atoms: _2  and  _3
REMARK    2  A    between atoms: _8  and  _10
REMARK    3  A    between atoms: _10  and  _11
REMARK    4  A    between atoms: _10  and  _13
REMARK    5  A    between atoms: _13  and  _14
REMARK    6  A    between atoms: _20  and  _22
REMARK    7  A    between atoms: _22  and  _23
REMARK    8  A    between atoms: _25  and  _27
REMARK    9  A    between atoms: _27  and  _28
REMARK   10  A    between atoms: _27  and  _30
REMARK   11  A    between atoms: _30  and  _31
REMARK   12  A    between atoms: _36  and  _38
REMARK   13  A    between atoms: _38  and  _39
REMARK   14  A    between atoms: _38  and  _41
REMARK   15  A    between atoms: _41  and  _42
REMARK   16  A    between atoms: _48  and  _50
REMARK   17  A    between atoms: _50  and  _51
REMARK   18  A    between atoms: _50  and  _53
REMARK   19  A    between atoms: _53  and  _54
REMARK   20  A    between atoms: _59  and  _60
REMARK   21  A    between atoms: _62  and  _64
REMARK   22  A    between atoms: _64  and  _65
REMARK   23  A    between atoms: _64  and  _67
REMARK   24  A    between atoms: _67  and  _68
REMARK   25  A    between atoms: _71  and  _73
REMARK   26  A    between atoms: _73  and  _74
REMARK   27  A    between atoms: _76  and  _78
REMARK   28  A    between atoms: _78  and  _79
REMARK   29  A    between atoms: _78  and  _81
REMARK   30  A    between atoms: _81  and  _82
REMARK   31  A    between atoms: _84  and  _86
REMARK   32  A    between atoms: _86  and  _87
REMARK   33  A    between atoms: _90  and  _92
REMARK   34  A    between atoms: _92  and  _93
REMARK   35  A    between atoms: _92  and  _95
REMARK   36  A    between atoms: _95  and  _96
REMARK   37  A    between atoms: _99  and  _101
REMARK   38  A    between atoms: _101  and  _102
REMARK   39  A    between atoms: _101  and  _104
REMARK   40  A    between atoms: _104  and  _105
REMARK   41  A    between atoms: _110  and  _112
REMARK   42  A    between atoms: _112  and  _113
REMARK   43  A    between atoms: _112  and  _115
REMARK   44  A    between atoms: _115  and  _116
REMARK   45  A    between atoms: _116  and  _117
REMARK   46  A    between atoms: _117  and  _118
REMARK   47  A    between atoms: _118  and  _119
REMARK   48  A    between atoms: _123  and  _125
REMARK   49  A    between atoms: _125  and  _126
REMARK   50  A    between atoms: _125  and  _128
REMARK   51  A    between atoms: _128  and  _129
REMARK   52  A    between atoms: _129  and  _130
REMARK   53  A    between atoms: _133  and  _135
REMARK   54  A    between atoms: _135  and  _136
REMARK   55  A    between atoms: _135  and  _138
REMARK   56  A    between atoms: _138  and  _139
REMARK   57  A    between atoms: _142  and  _144
REMARK   58  A    between atoms: _144  and  _145
REMARK   59  A    between atoms: _144  and  _147
REMARK   60  A    between atoms: _147  and  _148
REMARK   61  A    between atoms: _148  and  _149
REMARK   62  A    between atoms: _151  and  _153
REMARK   63  A    between atoms: _153  and  _154
REMARK   64  A    between atoms: _153  and  _156
REMARK   65  A    between atoms: _156  and  _157
REMARK   66  A    between atoms: _162  and  _164
REMARK   67  A    between atoms: _164  and  _165
REMARK   68  A    between atoms: _164  and  _167
REMARK   69  A    between atoms: _167  and  _168
REMARK   70  A    between atoms: _173  and  _175
REMARK   71  A    between atoms: _175  and  _176
REMARK   72  A    between atoms: _175  and  _178
REMARK   73  A    between atoms: _178  and  _179
REMARK   74  A    between atoms: _184  and  _185
REMARK   75  A    between atoms: _187  and  _189
REMARK   76  A    between atoms: _189  and  _190
REMARK   77  A    between atoms: _189  and  _192
REMARK   78  A    between atoms: _192  and  _193
REMARK   79  A    between atoms: _196  and  _198
REMARK   80  A    between atoms: _198  and  _199
REMARK   81  A    between atoms: _198  and  _201
REMARK   82  A    between atoms: _201  and  _202
REMARK   83  A    between atoms: _204  and  _206
REMARK   84  A    between atoms: _206  and  _207
REMARK   85  A    between atoms: _206  and  _209
REMARK   86  A    between atoms: _211  and  _213
REMARK   87  A    between atoms: _213  and  _214
REMARK   88  A    between atoms: _213  and  _216
REMARK   89  A    between atoms: _218  and  _220
REMARK   90  A    between atoms: _220  and  _221
REMARK   91  A    between atoms: _220  and  _223
REMARK   92  A    between atoms: _223  and  _224
REMARK   93  A    between atoms: _227  and  _229
REMARK   94  A    between atoms: _229  and  _230
REMARK   95  A    between atoms: _229  and  _232
REMARK   96  A    between atoms: _232  and  _233
REMARK   97  A    between atoms: _236  and  _238
REMARK   98  A    between atoms: _238  and  _239
REMARK   99  A    between atoms: _238  and  _241
REMARK  100  A    between atoms: _241  and  _242
REMARK  101  A    between atoms: _252  and  _254
REMARK  102  A    between atoms: _254  and  _255
REMARK  103  A    between atoms: _254  and  _257
REMARK  104  A    between atoms: _257  and  _258
REMARK  105  A    between atoms: _263  and  _264
REMARK  106  A    between atoms: _266  and  _268
REMARK  107  A    between atoms: _268  and  _269
REMARK  108  A    between atoms: _268  and  _271
REMARK  109  A    between atoms: _271  and  _272
REMARK  110  A    between atoms: _272  and  _273
REMARK  111  A    between atoms: _275  and  _277
REMARK  112  A    between atoms: _277  and  _278
REMARK  113  A    between atoms: _277  and  _280
REMARK  114  A    between atoms: _280  and  _281
REMARK  115  A    between atoms: _281  and  _282
REMARK  116  A    between atoms: _282  and  _283
REMARK  117  A    between atoms: _292  and  _294
REMARK  118  A    between atoms: _294  and  _295
REMARK  119  A    between atoms: _294  and  _297
REMARK  120  A    between atoms: _297  and  _298
REMARK  121  A    between atoms: _298  and  _299
REMARK  122  A    between atoms: _304  and  _306
REMARK  123  A    between atoms: _306  and  _307
REMARK  124  A    between atoms: _310  and  _312
REMARK  125  A    between atoms: _312  and  _313
REMARK  126  A    between atoms: _312  and  _315
REMARK  127  A    between atoms: _315  and  _316
REMARK  128  A    between atoms: _316  and  _317
REMARK  129  A    between atoms: _317  and  _318
REMARK  130  A    between atoms: _327  and  _329
REMARK  131  A    between atoms: _329  and  _330
REMARK  132  A    between atoms: _329  and  _332
REMARK  133  A    between atoms: _332  and  _333
REMARK                            x       y       z     vdW  Elec       q    Type
REMARK                         _______ _______ _______ _____ _____    ______ ____
ROOT
ATOM      1  O   HOH     1     -14.943  24.911 -31.753  0.00  0.00    +0.000 OA
ENDROOT
TORSDOF 0
REMARK  Name = ../refined-set-2016/3jzg/3jzg_pocket.pdb
REMARK  133 active torsions:
REMARK  status: ('A' for Active; 'I' for Inactive)
REMARK    1  A    between atoms: _2  and  _3
REMARK    2  A    between atoms: _8  and  _10
REMARK    3  A    between atoms: _10  and  _11
REMARK    4  A    between atoms: _10  and  _13
REMARK    5  A    between atoms: _13  and  _14
REMARK    6  A    between atoms: _20  and  _22
REMARK    7  A    between atoms: _22  and  _23
REMARK    8  A    between atoms: _25  and  _27
REMARK    9  A    between atoms: _27  and  _28
REMARK   10  A    between atoms: _27  and  _30
REMARK   11  A    between atoms: _30  and  _31
REMARK   12  A    between atoms: _36  and  _38
REMARK   13  A    between atoms: _38  and  _39
REMARK   14  A    between atoms: _38  and  _41
REMARK   15  A    between atoms: _41  and  _42
REMARK   16  A    between atoms: _48  and  _50
REMARK   17  A    between atoms: _50  and  _51
REMARK   18  A    between atoms: _50  and  _53
REMARK   19  A    between atoms: _53  and  _54
REMARK   20  A    between atoms: _59  and  _60
REMARK   21  A    between atoms: _62  and  _64
REMARK   22  A    between atoms: _64  and  _65
REMARK   23  A    between atoms: _64  and  _67
REMARK   24  A    between atoms: _67  and  _68
REMARK   25  A    between atoms: _71  and  _73
REMARK   26  A    between atoms: _73  and  _74
REMARK   27  A    between atoms: _76  and  _78
REMARK   28  A    between atoms: _78  and  _79
REMARK   29  A    between atoms: _78  and  _81
REMARK   30  A    between atoms: _81  and  _82
REMARK   31  A    between atoms: _84  and  _86
REMARK   32  A    between atoms: _86  and  _87
REMARK   33  A    between atoms: _90  and  _92
REMARK   34  A    between atoms: _92  and  _93
REMARK   35  A    between atoms: _92  and  _95
REMARK   36  A    between atoms: _95  and  _96
REMARK   37  A    between atoms: _99  and  _101
REMARK   38  A    between atoms: _101  and  _102
REMARK   39  A    between atoms: _101  and  _104
REMARK   40  A    between atoms: _104  and  _105
REMARK   41  A    between atoms: _110  and  _112
REMARK   42  A    between atoms: _112  and  _113
REMARK   43  A    between atoms: _112  and  _115
REMARK   44  A    between atoms: _115  and  _116
REMARK   45  A    between atoms: _116  and  _117
REMARK   46  A    between atoms: _117  and  _118
REMARK   47  A    between atoms: _118  and  _119
REMARK   48  A    between atoms: _123  and  _125
REMARK   49  A    between atoms: _125  and  _126
REMARK   50  A    between atoms: _125  and  _128
REMARK   51  A    between atoms: _128  and  _129
REMARK   52  A    between atoms: _129  and  _130
REMARK   53  A    between atoms: _133  and  _135
REMARK   54  A    between atoms: _135  and  _136
REMARK   55  A    between atoms: _135  and  _138
REMARK   56  A    between atoms: _138  and  _139
REMARK   57  A    between atoms: _142  and  _144
REMARK   58  A    between atoms: _144  and  _145
REMARK   59  A    between atoms: _144  and  _147
REMARK   60  A    between atoms: _147  and  _148
REMARK   61  A    between atoms: _148  and  _149
REMARK   62  A    between atoms: _151  and  _153
REMARK   63  A    between atoms: _153  and  _154
REMARK   64  A    between atoms: _153  and  _156
REMARK   65  A    between atoms: _156  and  _157
REMARK   66  A    between atoms: _162  and  _164
REMARK   67  A    between atoms: _164  and  _165
REMARK   68  A    between atoms: _164  and  _167
REMARK   69  A    between atoms: _167  and  _168
REMARK   70  A    between atoms: _173  and  _175
REMARK   71  A    between atoms: _175  and  _176
REMARK   72  A    between atoms: _175  and  _178
REMARK   73  A    between atoms: _178  and  _179
REMARK   74  A    between atoms: _184  and  _185
REMARK   75  A    between atoms: _187  and  _189
REMARK   76  A    between atoms: _189  and  _190
REMARK   77  A    between atoms: _189  and  _192
REMARK   78  A    between atoms: _192  and  _193
REMARK   79  A    between atoms: _196  and  _198
REMARK   80  A    between atoms: _198  and  _199
REMARK   81  A    between atoms: _198  and  _201
REMARK   82  A    between atoms: _201  and  _202
REMARK   83  A    between atoms: _204  and  _206
REMARK   84  A    between atoms: _206  and  _207
REMARK   85  A    between atoms: _206  and  _209
REMARK   86  A    between atoms: _211  and  _213
REMARK   87  A    between atoms: _213  and  _214
REMARK   88  A    between atoms: _213  and  _216
REMARK   89  A    between atoms: _218  and  _220
REMARK   90  A    between atoms: _220  and  _221
REMARK   91  A    between atoms: _220  and  _223
REMARK   92  A    between atoms: _223  and  _224
REMARK   93  A    between atoms: _227  and  _229
REMARK   94  A    between atoms: _229  and  _230
REMARK   95  A    between atoms: _229  and  _232
REMARK   96  A    between atoms: _232  and  _233
REMARK   97  A    between atoms: _236  and  _238
REMARK   98  A    between atoms: _238  and  _239
REMARK   99  A    between atoms: _238  and  _241
REMARK  100  A    between atoms: _241  and  _242
REMARK  101  A    between atoms: _252  and  _254
REMARK  102  A    between atoms: _254  and  _255
REMARK  103  A    between atoms: _254  and  _257
REMARK  104  A    between atoms: _257  and  _258
REMARK  105  A    between atoms: _263  and  _264
REMARK  106  A    between atoms: _266  and  _268
REMARK  107  A    between atoms: _268  and  _269
REMARK  108  A    between atoms: _268  and  _271
REMARK  109  A    between atoms: _271  and  _272
REMARK  110  A    between atoms: _272  and  _273
REMARK  111  A    between atoms: _275  and  _277
REMARK  112  A    between atoms: _277  and  _278
REMARK  113  A    between atoms: _277  and  _280
REMARK  114  A    between atoms: _280  and  _281
REMARK  115  A    between atoms: _281  and  _282
REMARK  116  A    between atoms: _282  and  _283
REMARK  117  A    between atoms: _292  and  _294
REMARK  118  A    between atoms: _294  and  _295
REMARK  119  A    between atoms: _294  and  _297
REMARK  120  A    between atoms: _297  and  _298
REMARK  121  A    between atoms: _298  and  _299
REMARK  122  A    between atoms: _304  and  _306
REMARK  123  A    between atoms: _306  and  _307
REMARK  124  A    between atoms: _310  and  _312
REMARK  125  A    between atoms: _312  and  _313
REMARK  126  A    between atoms: _312  and  _315
REMARK  127  A    between atoms: _315  and  _316
REMARK  128  A    between atoms: _316  and  _317
REMARK  129  A    between atoms: _317  and  _318
REMARK  130  A    between atoms: _327  and  _329
REMARK  131  A    between atoms: _329  and  _330
REMARK  132  A    between atoms: _329  and  _332
REMARK  133  A    between atoms: _332  and  _333
REMARK                            x       y       z     vdW  Elec       q    Type
REMARK                         _______ _______ _______ _____ _____    ______ ____
ROOT
ATOM      1  O   HOH     1     -22.183  25.833 -21.600  0.00  0.00    +0.000 OA
ENDROOT
TORSDOF 0
REMARK  Name = ../refined-set-2016/3jzg/3jzg_pocket.pdb
REMARK  133 active torsions:
REMARK  status: ('A' for Active; 'I' for Inactive)
REMARK    1  A    between atoms: _2  and  _3
REMARK    2  A    between atoms: _8  and  _10
REMARK    3  A    between atoms: _10  and  _11
REMARK    4  A    between atoms: _10  and  _13
REMARK    5  A    between atoms: _13  and  _14
REMARK    6  A    between atoms: _20  and  _22
REMARK    7  A    between atoms: _22  and  _23
REMARK    8  A    between atoms: _25  and  _27
REMARK    9  A    between atoms: _27  and  _28
REMARK   10  A    between atoms: _27  and  _30
REMARK   11  A    between atoms: _30  and  _31
REMARK   12  A    between atoms: _36  and  _38
REMARK   13  A    between atoms: _38  and  _39
REMARK   14  A    between atoms: _38  and  _41
REMARK   15  A    between atoms: _41  and  _42
REMARK   16  A    between atoms: _48  and  _50
REMARK   17  A    between atoms: _50  and  _51
REMARK   18  A    between atoms: _50  and  _53
REMARK   19  A    between atoms: _53  and  _54
REMARK   20  A    between atoms: _59  and  _60
REMARK   21  A    between atoms: _62  and  _64
REMARK   22  A    between atoms: _64  and  _65
REMARK   23  A    between atoms: _64  and  _67
REMARK   24  A    between atoms: _67  and  _68
REMARK   25  A    between atoms: _71  and  _73
REMARK   26  A    between atoms: _73  and  _74
REMARK   27  A    between atoms: _76  and  _78
REMARK   28  A    between atoms: _78  and  _79
REMARK   29  A    between atoms: _78  and  _81
REMARK   30  A    between atoms: _81  and  _82
REMARK   31  A    between atoms: _84  and  _86
REMARK   32  A    between atoms: _86  and  _87
REMARK   33  A    between atoms: _90  and  _92
REMARK   34  A    between atoms: _92  and  _93
REMARK   35  A    between atoms: _92  and  _95
REMARK   36  A    between atoms: _95  and  _96
REMARK   37  A    between atoms: _99  and  _101
REMARK   38  A    between atoms: _101  and  _102
REMARK   39  A    between atoms: _101  and  _104
REMARK   40  A    between atoms: _104  and  _105
REMARK   41  A    between atoms: _110  and  _112
REMARK   42  A    between atoms: _112  and  _113
REMARK   43  A    between atoms: _112  and  _115
REMARK   44  A    between atoms: _115  and  _116
REMARK   45  A    between atoms: _116  and  _117
REMARK   46  A    between atoms: _117  and  _118
REMARK   47  A    between atoms: _118  and  _119
REMARK   48  A    between atoms: _123  and  _125
REMARK   49  A    between atoms: _125  and  _126
REMARK   50  A    between atoms: _125  and  _128
REMARK   51  A    between atoms: _128  and  _129
REMARK   52  A    between atoms: _129  and  _130
REMARK   53  A    between atoms: _133  and  _135
REMARK   54  A    between atoms: _135  and  _136
REMARK   55  A    between atoms: _135  and  _138
REMARK   56  A    between atoms: _138  and  _139
REMARK   57  A    between atoms: _142  and  _144
REMARK   58  A    between atoms: _144  and  _145
REMARK   59  A    between atoms: _144  and  _147
REMARK   60  A    between atoms: _147  and  _148
REMARK   61  A    between atoms: _148  and  _149
REMARK   62  A    between atoms: _151  and  _153
REMARK   63  A    between atoms: _153  and  _154
REMARK   64  A    between atoms: _153  and  _156
REMARK   65  A    between atoms: _156  and  _157
REMARK   66  A    between atoms: _162  and  _164
REMARK   67  A    between atoms: _164  and  _165
REMARK   68  A    between atoms: _164  and  _167
REMARK   69  A    between atoms: _167  and  _168
REMARK   70  A    between atoms: _173  and  _175
REMARK   71  A    between atoms: _175  and  _176
REMARK   72  A    between atoms: _175  and  _178
REMARK   73  A    between atoms: _178  and  _179
REMARK   74  A    between atoms: _184  and  _185
REMARK   75  A    between atoms: _187  and  _189
REMARK   76  A    between atoms: _189  and  _190
REMARK   77  A    between atoms: _189  and  _192
REMARK   78  A    between atoms: _192  and  _193
REMARK   79  A    between atoms: _196  and  _198
REMARK   80  A    between atoms: _198  and  _199
REMARK   81  A    between atoms: _198  and  _201
REMARK   82  A    between atoms: _201  and  _202
REMARK   83  A    between atoms: _204  and  _206
REMARK   84  A    between atoms: _206  and  _207
REMARK   85  A    between atoms: _206  and  _209
REMARK   86  A    between atoms: _211  and  _213
REMARK   87  A    between atoms: _213  and  _214
REMARK   88  A    between atoms: _213  and  _216
REMARK   89  A    between atoms: _218  and  _220
REMARK   90  A    between atoms: _220  and  _221
REMARK   91  A    between atoms: _220  and  _223
REMARK   92  A    between atoms: _223  and  _224
REMARK   93  A    between atoms: _227  and  _229
REMARK   94  A    between atoms: _229  and  _230
REMARK   95  A    between atoms: _229  and  _232
REMARK   96  A    between atoms: _232  and  _233
REMARK   97  A    between atoms: _236  and  _238
REMARK   98  A    between atoms: _238  and  _239
REMARK   99  A    between atoms: _238  and  _241
REMARK  100  A    between atoms: _241  and  _242
REMARK  101  A    between atoms: _252  and  _254
REMARK  102  A    between atoms: _254  and  _255
REMARK  103  A    between atoms: _254  and  _257
REMARK  104  A    between atoms: _257  and  _258
REMARK  105  A    between atoms: _263  and  _264
REMARK  106  A    between atoms: _266  and  _268
REMARK  107  A    between atoms: _268  and  _269
REMARK  108  A    between atoms: _268  and  _271
REMARK  109  A    between atoms: _271  and  _272
REMARK  110  A    between atoms: _272  and  _273
REMARK  111  A    between atoms: _275  and  _277
REMARK  112  A    between atoms: _277  and  _278
REMARK  113  A    between atoms: _277  and  _280
REMARK  114  A    between atoms: _280  and  _281
REMARK  115  A    between atoms: _281  and  _282
REMARK  116  A    between atoms: _282  and  _283
REMARK  117  A    between atoms: _292  and  _294
REMARK  118  A    between atoms: _294  and  _295
REMARK  119  A    between atoms: _294  and  _297
REMARK  120  A    between atoms: _297  and  _298
REMARK  121  A    between atoms: _298  and  _299
REMARK  122  A    between atoms: _304  and  _306
REMARK  123  A    between atoms: _306  and  _307
REMARK  124  A    between atoms: _310  and  _312
REMARK  125  A    between atoms: _312  and  _313
REMARK  126  A    between atoms: _312  and  _315
REMARK  127  A    between atoms: _315  and  _316
REMARK  128  A    between atoms: _316  and  _317
REMARK  129  A    between atoms: _317  and  _318
REMARK  130  A    between atoms: _327  and  _329
REMARK  131  A    between atoms: _329  and  _330
REMARK  132  A    between atoms: _329  and  _332
REMARK  133  A    between atoms: _332  and  _333
REMARK                            x       y       z     vdW  Elec       q    Type
REMARK                         _______ _______ _______ _____ _____    ______ ____
ROOT
ATOM      1  O   HOH     1     -19.196  24.433 -20.072  0.00  0.00    +0.000 OA
ENDROOT
TORSDOF 0
REMARK  Name = ../refined-set-2016/3jzg/3jzg_pocket.pdb
REMARK  133 active torsions:
REMARK  status: ('A' for Active; 'I' for Inactive)
REMARK    1  A    between atoms: _2  and  _3
REMARK    2  A    between atoms: _8  and  _10
REMARK    3  A    between atoms: _10  and  _11
REMARK    4  A    between atoms: _10  and  _13
REMARK    5  A    between atoms: _13  and  _14
REMARK    6  A    between atoms: _20  and  _22
REMARK    7  A    between atoms: _22  and  _23
REMARK    8  A    between atoms: _25  and  _27
REMARK    9  A    between atoms: _27  and  _28
REMARK   10  A    between atoms: _27  and  _30
REMARK   11  A    between atoms: _30  and  _31
REMARK   12  A    between atoms: _36  and  _38
REMARK   13  A    between atoms: _38  and  _39
REMARK   14  A    between atoms: _38  and  _41
REMARK   15  A    between atoms: _41  and  _42
REMARK   16  A    between atoms: _48  and  _50
REMARK   17  A    between atoms: _50  and  _51
REMARK   18  A    between atoms: _50  and  _53
REMARK   19  A    between atoms: _53  and  _54
REMARK   20  A    between atoms: _59  and  _60
REMARK   21  A    between atoms: _62  and  _64
REMARK   22  A    between atoms: _64  and  _65
REMARK   23  A    between atoms: _64  and  _67
REMARK   24  A    between atoms: _67  and  _68
REMARK   25  A    between atoms: _71  and  _73
REMARK   26  A    between atoms: _73  and  _74
REMARK   27  A    between atoms: _76  and  _78
REMARK   28  A    between atoms: _78  and  _79
REMARK   29  A    between atoms: _78  and  _81
REMARK   30  A    between atoms: _81  and  _82
REMARK   31  A    between atoms: _84  and  _86
REMARK   32  A    between atoms: _86  and  _87
REMARK   33  A    between atoms: _90  and  _92
REMARK   34  A    between atoms: _92  and  _93
REMARK   35  A    between atoms: _92  and  _95
REMARK   36  A    between atoms: _95  and  _96
REMARK   37  A    between atoms: _99  and  _101
REMARK   38  A    between atoms: _101  and  _102
REMARK   39  A    between atoms: _101  and  _104
REMARK   40  A    between atoms: _104  and  _105
REMARK   41  A    between atoms: _110  and  _112
REMARK   42  A    between atoms: _112  and  _113
REMARK   43  A    between atoms: _112  and  _115
REMARK   44  A    between atoms: _115  and  _116
REMARK   45  A    between atoms: _116  and  _117
REMARK   46  A    between atoms: _117  and  _118
REMARK   47  A    between atoms: _118  and  _119
REMARK   48  A    between atoms: _123  and  _125
REMARK   49  A    between atoms: _125  and  _126
REMARK   50  A    between atoms: _125  and  _128
REMARK   51  A    between atoms: _128  and  _129
REMARK   52  A    between atoms: _129  and  _130
REMARK   53  A    between atoms: _133  and  _135
REMARK   54  A    between atoms: _135  and  _136
REMARK   55  A    between atoms: _135  and  _138
REMARK   56  A    between atoms: _138  and  _139
REMARK   57  A    between atoms: _142  and  _144
REMARK   58  A    between atoms: _144  and  _145
REMARK   59  A    between atoms: _144  and  _147
REMARK   60  A    between atoms: _147  and  _148
REMARK   61  A    between atoms: _148  and  _149
REMARK   62  A    between atoms: _151  and  _153
REMARK   63  A    between atoms: _153  and  _154
REMARK   64  A    between atoms: _153  and  _156
REMARK   65  A    between atoms: _156  and  _157
REMARK   66  A    between atoms: _162  and  _164
REMARK   67  A    between atoms: _164  and  _165
REMARK   68  A    between atoms: _164  and  _167
REMARK   69  A    between atoms: _167  and  _168
REMARK   70  A    between atoms: _173  and  _175
REMARK   71  A    between atoms: _175  and  _176
REMARK   72  A    between atoms: _175  and  _178
REMARK   73  A    between atoms: _178  and  _179
REMARK   74  A    between atoms: _184  and  _185
REMARK   75  A    between atoms: _187  and  _189
REMARK   76  A    between atoms: _189  and  _190
REMARK   77  A    between atoms: _189  and  _192
REMARK   78  A    between atoms: _192  and  _193
REMARK   79  A    between atoms: _196  and  _198
REMARK   80  A    between atoms: _198  and  _199
REMARK   81  A    between atoms: _198  and  _201
REMARK   82  A    between atoms: _201  and  _202
REMARK   83  A    between atoms: _204  and  _206
REMARK   84  A    between atoms: _206  and  _207
REMARK   85  A    between atoms: _206  and  _209
REMARK   86  A    between atoms: _211  and  _213
REMARK   87  A    between atoms: _213  and  _214
REMARK   88  A    between atoms: _213  and  _216
REMARK   89  A    between atoms: _218  and  _220
REMARK   90  A    between atoms: _220  and  _221
REMARK   91  A    between atoms: _220  and  _223
REMARK   92  A    between atoms: _223  and  _224
REMARK   93  A    between atoms: _227  and  _229
REMARK   94  A    between atoms: _229  and  _230
REMARK   95  A    between atoms: _229  and  _232
REMARK   96  A    between atoms: _232  and  _233
REMARK   97  A    between atoms: _236  and  _238
REMARK   98  A    between atoms: _238  and  _239
REMARK   99  A    between atoms: _238  and  _241
REMARK  100  A    between atoms: _241  and  _242
REMARK  101  A    between atoms: _252  and  _254
REMARK  102  A    between atoms: _254  and  _255
REMARK  103  A    between atoms: _254  and  _257
REMARK  104  A    between atoms: _257  and  _258
REMARK  105  A    between atoms: _263  and  _264
REMARK  106  A    between atoms: _266  and  _268
REMARK  107  A    between atoms: _268  and  _269
REMARK  108  A    between atoms: _268  and  _271
REMARK  109  A    between atoms: _271  and  _272
REMARK  110  A    between atoms: _272  and  _273
REMARK  111  A    between atoms: _275  and  _277
REMARK  112  A    between atoms: _277  and  _278
REMARK  113  A    between atoms: _277  and  _280
REMARK  114  A    between atoms: _280  and  _281
REMARK  115  A    between atoms: _281  and  _282
REMARK  116  A    between atoms: _282  and  _283
REMARK  117  A    between atoms: _292  and  _294
REMARK  118  A    between atoms: _294  and  _295
REMARK  119  A    between atoms: _294  and  _297
REMARK  120  A    between atoms: _297  and  _298
REMARK  121  A    between atoms: _298  and  _299
REMARK  122  A    between atoms: _304  and  _306
REMARK  123  A    between atoms: _306  and  _307
REMARK  124  A    between atoms: _310  and  _312
REMARK  125  A    between atoms: _312  and  _313
REMARK  126  A    between atoms: _312  and  _315
REMARK  127  A    between atoms: _315  and  _316
REMARK  128  A    between atoms: _316  and  _317
REMARK  129  A    between atoms: _317  and  _318
REMARK  130  A    between atoms: _327  and  _329
REMARK  131  A    between atoms: _329  and  _330
REMARK  132  A    between atoms: _329  and  _332
REMARK  133  A    between atoms: _332  and  _333
REMARK                            x       y       z     vdW  Elec       q    Type
REMARK                         _______ _______ _______ _____ _____    ______ ____
ROOT
ATOM      1  O   HOH     1      -8.715  25.582 -22.483  0.00  0.00    +0.000 OA
ENDROOT
TORSDOF 0
REMARK  Name = ../refined-set-2016/3jzg/3jzg_pocket.pdb
REMARK  133 active torsions:
REMARK  status: ('A' for Active; 'I' for Inactive)
REMARK    1  A    between atoms: _2  and  _3
REMARK    2  A    between atoms: _8  and  _10
REMARK    3  A    between atoms: _10  and  _11
REMARK    4  A    between atoms: _10  and  _13
REMARK    5  A    between atoms: _13  and  _14
REMARK    6  A    between atoms: _20  and  _22
REMARK    7  A    between atoms: _22  and  _23
REMARK    8  A    between atoms: _25  and  _27
REMARK    9  A    between atoms: _27  and  _28
REMARK   10  A    between atoms: _27  and  _30
REMARK   11  A    between atoms: _30  and  _31
REMARK   12  A    between atoms: _36  and  _38
REMARK   13  A    between atoms: _38  and  _39
REMARK   14  A    between atoms: _38  and  _41
REMARK   15  A    between atoms: _41  and  _42
REMARK   16  A    between atoms: _48  and  _50
REMARK   17  A    between atoms: _50  and  _51
REMARK   18  A    between atoms: _50  and  _53
REMARK   19  A    between atoms: _53  and  _54
REMARK   20  A    between atoms: _59  and  _60
REMARK   21  A    between atoms: _62  and  _64
REMARK   22  A    between atoms: _64  and  _65
REMARK   23  A    between atoms: _64  and  _67
REMARK   24  A    between atoms: _67  and  _68
REMARK   25  A    between atoms: _71  and  _73
REMARK   26  A    between atoms: _73  and  _74
REMARK   27  A    between atoms: _76  and  _78
REMARK   28  A    between atoms: _78  and  _79
REMARK   29  A    between atoms: _78  and  _81
REMARK   30  A    between atoms: _81  and  _82
REMARK   31  A    between atoms: _84  and  _86
REMARK   32  A    between atoms: _86  and  _87
REMARK   33  A    between atoms: _90  and  _92
REMARK   34  A    between atoms: _92  and  _93
REMARK   35  A    between atoms: _92  and  _95
REMARK   36  A    between atoms: _95  and  _96
REMARK   37  A    between atoms: _99  and  _101
REMARK   38  A    between atoms: _101  and  _102
REMARK   39  A    between atoms: _101  and  _104
REMARK   40  A    between atoms: _104  and  _105
REMARK   41  A    between atoms: _110  and  _112
REMARK   42  A    between atoms: _112  and  _113
REMARK   43  A    between atoms: _112  and  _115
REMARK   44  A    between atoms: _115  and  _116
REMARK   45  A    between atoms: _116  and  _117
REMARK   46  A    between atoms: _117  and  _118
REMARK   47  A    between atoms: _118  and  _119
REMARK   48  A    between atoms: _123  and  _125
REMARK   49  A    between atoms: _125  and  _126
REMARK   50  A    between atoms: _125  and  _128
REMARK   51  A    between atoms: _128  and  _129
REMARK   52  A    between atoms: _129  and  _130
REMARK   53  A    between atoms: _133  and  _135
REMARK   54  A    between atoms: _135  and  _136
REMARK   55  A    between atoms: _135  and  _138
REMARK   56  A    between atoms: _138  and  _139
REMARK   57  A    between atoms: _142  and  _144
REMARK   58  A    between atoms: _144  and  _145
REMARK   59  A    between atoms: _144  and  _147
REMARK   60  A    between atoms: _147  and  _148
REMARK   61  A    between atoms: _148  and  _149
REMARK   62  A    between atoms: _151  and  _153
REMARK   63  A    between atoms: _153  and  _154
REMARK   64  A    between atoms: _153  and  _156
REMARK   65  A    between atoms: _156  and  _157
REMARK   66  A    between atoms: _162  and  _164
REMARK   67  A    between atoms: _164  and  _165
REMARK   68  A    between atoms: _164  and  _167
REMARK   69  A    between atoms: _167  and  _168
REMARK   70  A    between atoms: _173  and  _175
REMARK   71  A    between atoms: _175  and  _176
REMARK   72  A    between atoms: _175  and  _178
REMARK   73  A    between atoms: _178  and  _179
REMARK   74  A    between atoms: _184  and  _185
REMARK   75  A    between atoms: _187  and  _189
REMARK   76  A    between atoms: _189  and  _190
REMARK   77  A    between atoms: _189  and  _192
REMARK   78  A    between atoms: _192  and  _193
REMARK   79  A    between atoms: _196  and  _198
REMARK   80  A    between atoms: _198  and  _199
REMARK   81  A    between atoms: _198  and  _201
REMARK   82  A    between atoms: _201  and  _202
REMARK   83  A    between atoms: _204  and  _206
REMARK   84  A    between atoms: _206  and  _207
REMARK   85  A    between atoms: _206  and  _209
REMARK   86  A    between atoms: _211  and  _213
REMARK   87  A    between atoms: _213  and  _214
REMARK   88  A    between atoms: _213  and  _216
REMARK   89  A    between atoms: _218  and  _220
REMARK   90  A    between atoms: _220  and  _221
REMARK   91  A    between atoms: _220  and  _223
REMARK   92  A    between atoms: _223  and  _224
REMARK   93  A    between atoms: _227  and  _229
REMARK   94  A    between atoms: _229  and  _230
REMARK   95  A    between atoms: _229  and  _232
REMARK   96  A    between atoms: _232  and  _233
REMARK   97  A    between atoms: _236  and  _238
REMARK   98  A    between atoms: _238  and  _239
REMARK   99  A    between atoms: _238  and  _241
REMARK  100  A    between atoms: _241  and  _242
REMARK  101  A    between atoms: _252  and  _254
REMARK  102  A    between atoms: _254  and  _255
REMARK  103  A    between atoms: _254  and  _257
REMARK  104  A    between atoms: _257  and  _258
REMARK  105  A    between atoms: _263  and  _264
REMARK  106  A    between atoms: _266  and  _268
REMARK  107  A    between atoms: _268  and  _269
REMARK  108  A    between atoms: _268  and  _271
REMARK  109  A    between atoms: _271  and  _272
REMARK  110  A    between atoms: _272  and  _273
REMARK  111  A    between atoms: _275  and  _277
REMARK  112  A    between atoms: _277  and  _278
REMARK  113  A    between atoms: _277  and  _280
REMARK  114  A    between atoms: _280  and  _281
REMARK  115  A    between atoms: _281  and  _282
REMARK  116  A    between atoms: _282  and  _283
REMARK  117  A    between atoms: _292  and  _294
REMARK  118  A    between atoms: _294  and  _295
REMARK  119  A    between atoms: _294  and  _297
REMARK  120  A    between atoms: _297  and  _298
REMARK  121  A    between atoms: _298  and  _299
REMARK  122  A    between atoms: _304  and  _306
REMARK  123  A    between atoms: _306  and  _307
REMARK  124  A    between atoms: _310  and  _312
REMARK  125  A    between atoms: _312  and  _313
REMARK  126  A    between atoms: _312  and  _315
REMARK  127  A    between atoms: _315  and  _316
REMARK  128  A    between atoms: _316  and  _317
REMARK  129  A    between atoms: _317  and  _318
REMARK  130  A    between atoms: _327  and  _329
REMARK  131  A    between atoms: _329  and  _330
REMARK  132  A    between atoms: _329  and  _332
REMARK  133  A    between atoms: _332  and  _333
REMARK                            x       y       z     vdW  Elec       q    Type
REMARK                         _______ _______ _______ _____ _____    ______ ____
ROOT
ATOM      1  O   HOH     1     -15.978  19.071 -28.971  0.00  0.00    +0.000 OA
ENDROOT
TORSDOF 0
REMARK  Name = ../refined-set-2016/3jzg/3jzg_pocket.pdb
REMARK  133 active torsions:
REMARK  status: ('A' for Active; 'I' for Inactive)
REMARK    1  A    between atoms: _2  and  _3
REMARK    2  A    between atoms: _8  and  _10
REMARK    3  A    between atoms: _10  and  _11
REMARK    4  A    between atoms: _10  and  _13
REMARK    5  A    between atoms: _13  and  _14
REMARK    6  A    between atoms: _20  and  _22
REMARK    7  A    between atoms: _22  and  _23
REMARK    8  A    between atoms: _25  and  _27
REMARK    9  A    between atoms: _27  and  _28
REMARK   10  A    between atoms: _27  and  _30
REMARK   11  A    between atoms: _30  and  _31
REMARK   12  A    between atoms: _36  and  _38
REMARK   13  A    between atoms: _38  and  _39
REMARK   14  A    between atoms: _38  and  _41
REMARK   15  A    between atoms: _41  and  _42
REMARK   16  A    between atoms: _48  and  _50
REMARK   17  A    between atoms: _50  and  _51
REMARK   18  A    between atoms: _50  and  _53
REMARK   19  A    between atoms: _53  and  _54
REMARK   20  A    between atoms: _59  and  _60
REMARK   21  A    between atoms: _62  and  _64
REMARK   22  A    between atoms: _64  and  _65
REMARK   23  A    between atoms: _64  and  _67
REMARK   24  A    between atoms: _67  and  _68
REMARK   25  A    between atoms: _71  and  _73
REMARK   26  A    between atoms: _73  and  _74
REMARK   27  A    between atoms: _76  and  _78
REMARK   28  A    between atoms: _78  and  _79
REMARK   29  A    between atoms: _78  and  _81
REMARK   30  A    between atoms: _81  and  _82
REMARK   31  A    between atoms: _84  and  _86
REMARK   32  A    between atoms: _86  and  _87
REMARK   33  A    between atoms: _90  and  _92
REMARK   34  A    between atoms: _92  and  _93
REMARK   35  A    between atoms: _92  and  _95
REMARK   36  A    between atoms: _95  and  _96
REMARK   37  A    between atoms: _99  and  _101
REMARK   38  A    between atoms: _101  and  _102
REMARK   39  A    between atoms: _101  and  _104
REMARK   40  A    between atoms: _104  and  _105
REMARK   41  A    between atoms: _110  and  _112
REMARK   42  A    between atoms: _112  and  _113
REMARK   43  A    between atoms: _112  and  _115
REMARK   44  A    between atoms: _115  and  _116
REMARK   45  A    between atoms: _116  and  _117
REMARK   46  A    between atoms: _117  and  _118
REMARK   47  A    between atoms: _118  and  _119
REMARK   48  A    between atoms: _123  and  _125
REMARK   49  A    between atoms: _125  and  _126
REMARK   50  A    between atoms: _125  and  _128
REMARK   51  A    between atoms: _128  and  _129
REMARK   52  A    between atoms: _129  and  _130
REMARK   53  A    between atoms: _133  and  _135
REMARK   54  A    between atoms: _135  and  _136
REMARK   55  A    between atoms: _135  and  _138
REMARK   56  A    between atoms: _138  and  _139
REMARK   57  A    between atoms: _142  and  _144
REMARK   58  A    between atoms: _144  and  _145
REMARK   59  A    between atoms: _144  and  _147
REMARK   60  A    between atoms: _147  and  _148
REMARK   61  A    between atoms: _148  and  _149
REMARK   62  A    between atoms: _151  and  _153
REMARK   63  A    between atoms: _153  and  _154
REMARK   64  A    between atoms: _153  and  _156
REMARK   65  A    between atoms: _156  and  _157
REMARK   66  A    between atoms: _162  and  _164
REMARK   67  A    between atoms: _164  and  _165
REMARK   68  A    between atoms: _164  and  _167
REMARK   69  A    between atoms: _167  and  _168
REMARK   70  A    between atoms: _173  and  _175
REMARK   71  A    between atoms: _175  and  _176
REMARK   72  A    between atoms: _175  and  _178
REMARK   73  A    between atoms: _178  and  _179
REMARK   74  A    between atoms: _184  and  _185
REMARK   75  A    between atoms: _187  and  _189
REMARK   76  A    between atoms: _189  and  _190
REMARK   77  A    between atoms: _189  and  _192
REMARK   78  A    between atoms: _192  and  _193
REMARK   79  A    between atoms: _196  and  _198
REMARK   80  A    between atoms: _198  and  _199
REMARK   81  A    between atoms: _198  and  _201
REMARK   82  A    between atoms: _201  and  _202
REMARK   83  A    between atoms: _204  and  _206
REMARK   84  A    between atoms: _206  and  _207
REMARK   85  A    between atoms: _206  and  _209
REMARK   86  A    between atoms: _211  and  _213
REMARK   87  A    between atoms: _213  and  _214
REMARK   88  A    between atoms: _213  and  _216
REMARK   89  A    between atoms: _218  and  _220
REMARK   90  A    between atoms: _220  and  _221
REMARK   91  A    between atoms: _220  and  _223
REMARK   92  A    between atoms: _223  and  _224
REMARK   93  A    between atoms: _227  and  _229
REMARK   94  A    between atoms: _229  and  _230
REMARK   95  A    between atoms: _229  and  _232
REMARK   96  A    between atoms: _232  and  _233
REMARK   97  A    between atoms: _236  and  _238
REMARK   98  A    between atoms: _238  and  _239
REMARK   99  A    between atoms: _238  and  _241
REMARK  100  A    between atoms: _241  and  _242
REMARK  101  A    between atoms: _252  and  _254
REMARK  102  A    between atoms: _254  and  _255
REMARK  103  A    between atoms: _254  and  _257
REMARK  104  A    between atoms: _257  and  _258
REMARK  105  A    between atoms: _263  and  _264
REMARK  106  A    between atoms: _266  and  _268
REMARK  107  A    between atoms: _268  and  _269
REMARK  108  A    between atoms: _268  and  _271
REMARK  109  A    between atoms: _271  and  _272
REMARK  110  A    between atoms: _272  and  _273
REMARK  111  A    between atoms: _275  and  _277
REMARK  112  A    between atoms: _277  and  _278
REMARK  113  A    between atoms: _277  and  _280
REMARK  114  A    between atoms: _280  and  _281
REMARK  115  A    between atoms: _281  and  _282
REMARK  116  A    between atoms: _282  and  _283
REMARK  117  A    between atoms: _292  and  _294
REMARK  118  A    between atoms: _294  and  _295
REMARK  119  A    between atoms: _294  and  _297
REMARK  120  A    between atoms: _297  and  _298
REMARK  121  A    between atoms: _298  and  _299
REMARK  122  A    between atoms: _304  and  _306
REMARK  123  A    between atoms: _306  and  _307
REMARK  124  A    between atoms: _310  and  _312
REMARK  125  A    between atoms: _312  and  _313
REMARK  126  A    between atoms: _312  and  _315
REMARK  127  A    between atoms: _315  and  _316
REMARK  128  A    between atoms: _316  and  _317
REMARK  129  A    between atoms: _317  and  _318
REMARK  130  A    between atoms: _327  and  _329
REMARK  131  A    between atoms: _329  and  _330
REMARK  132  A    between atoms: _329  and  _332
REMARK  133  A    between atoms: _332  and  _333
REMARK                            x       y       z     vdW  Elec       q    Type
REMARK                         _______ _______ _______ _____ _____    ______ ____
ROOT
ATOM      1  O   HOH     1     -16.909  42.487 -23.541  0.00  0.00    +0.000 OA
ENDROOT
TORSDOF 0
REMARK  Name = ../refined-set-2016/3jzg/3jzg_pocket.pdb
REMARK  133 active torsions:
REMARK  status: ('A' for Active; 'I' for Inactive)
REMARK    1  A    between atoms: _2  and  _3
REMARK    2  A    between atoms: _8  and  _10
REMARK    3  A    between atoms: _10  and  _11
REMARK    4  A    between atoms: _10  and  _13
REMARK    5  A    between atoms: _13  and  _14
REMARK    6  A    between atoms: _20  and  _22
REMARK    7  A    between atoms: _22  and  _23
REMARK    8  A    between atoms: _25  and  _27
REMARK    9  A    between atoms: _27  and  _28
REMARK   10  A    between atoms: _27  and  _30
REMARK   11  A    between atoms: _30  and  _31
REMARK   12  A    between atoms: _36  and  _38
REMARK   13  A    between atoms: _38  and  _39
REMARK   14  A    between atoms: _38  and  _41
REMARK   15  A    between atoms: _41  and  _42
REMARK   16  A    between atoms: _48  and  _50
REMARK   17  A    between atoms: _50  and  _51
REMARK   18  A    between atoms: _50  and  _53
REMARK   19  A    between atoms: _53  and  _54
REMARK   20  A    between atoms: _59  and  _60
REMARK   21  A    between atoms: _62  and  _64
REMARK   22  A    between atoms: _64  and  _65
REMARK   23  A    between atoms: _64  and  _67
REMARK   24  A    between atoms: _67  and  _68
REMARK   25  A    between atoms: _71  and  _73
REMARK   26  A    between atoms: _73  and  _74
REMARK   27  A    between atoms: _76  and  _78
REMARK   28  A    between atoms: _78  and  _79
REMARK   29  A    between atoms: _78  and  _81
REMARK   30  A    between atoms: _81  and  _82
REMARK   31  A    between atoms: _84  and  _86
REMARK   32  A    between atoms: _86  and  _87
REMARK   33  A    between atoms: _90  and  _92
REMARK   34  A    between atoms: _92  and  _93
REMARK   35  A    between atoms: _92  and  _95
REMARK   36  A    between atoms: _95  and  _96
REMARK   37  A    between atoms: _99  and  _101
REMARK   38  A    between atoms: _101  and  _102
REMARK   39  A    between atoms: _101  and  _104
REMARK   40  A    between atoms: _104  and  _105
REMARK   41  A    between atoms: _110  and  _112
REMARK   42  A    between atoms: _112  and  _113
REMARK   43  A    between atoms: _112  and  _115
REMARK   44  A    between atoms: _115  and  _116
REMARK   45  A    between atoms: _116  and  _117
REMARK   46  A    between atoms: _117  and  _118
REMARK   47  A    between atoms: _118  and  _119
REMARK   48  A    between atoms: _123  and  _125
REMARK   49  A    between atoms: _125  and  _126
REMARK   50  A    between atoms: _125  and  _128
REMARK   51  A    between atoms: _128  and  _129
REMARK   52  A    between atoms: _129  and  _130
REMARK   53  A    between atoms: _133  and  _135
REMARK   54  A    between atoms: _135  and  _136
REMARK   55  A    between atoms: _135  and  _138
REMARK   56  A    between atoms: _138  and  _139
REMARK   57  A    between atoms: _142  and  _144
REMARK   58  A    between atoms: _144  and  _145
REMARK   59  A    between atoms: _144  and  _147
REMARK   60  A    between atoms: _147  and  _148
REMARK   61  A    between atoms: _148  and  _149
REMARK   62  A    between atoms: _151  and  _153
REMARK   63  A    between atoms: _153  and  _154
REMARK   64  A    between atoms: _153  and  _156
REMARK   65  A    between atoms: _156  and  _157
REMARK   66  A    between atoms: _162  and  _164
REMARK   67  A    between atoms: _164  and  _165
REMARK   68  A    between atoms: _164  and  _167
REMARK   69  A    between atoms: _167  and  _168
REMARK   70  A    between atoms: _173  and  _175
REMARK   71  A    between atoms: _175  and  _176
REMARK   72  A    between atoms: _175  and  _178
REMARK   73  A    between atoms: _178  and  _179
REMARK   74  A    between atoms: _184  and  _185
REMARK   75  A    between atoms: _187  and  _189
REMARK   76  A    between atoms: _189  and  _190
REMARK   77  A    between atoms: _189  and  _192
REMARK   78  A    between atoms: _192  and  _193
REMARK   79  A    between atoms: _196  and  _198
REMARK   80  A    between atoms: _198  and  _199
REMARK   81  A    between atoms: _198  and  _201
REMARK   82  A    between atoms: _201  and  _202
REMARK   83  A    between atoms: _204  and  _206
REMARK   84  A    between atoms: _206  and  _207
REMARK   85  A    between atoms: _206  and  _209
REMARK   86  A    between atoms: _211  and  _213
REMARK   87  A    between atoms: _213  and  _214
REMARK   88  A    between atoms: _213  and  _216
REMARK   89  A    between atoms: _218  and  _220
REMARK   90  A    between atoms: _220  and  _221
REMARK   91  A    between atoms: _220  and  _223
REMARK   92  A    between atoms: _223  and  _224
REMARK   93  A    between atoms: _227  and  _229
REMARK   94  A    between atoms: _229  and  _230
REMARK   95  A    between atoms: _229  and  _232
REMARK   96  A    between atoms: _232  and  _233
REMARK   97  A    between atoms: _236  and  _238
REMARK   98  A    between atoms: _238  and  _239
REMARK   99  A    between atoms: _238  and  _241
REMARK  100  A    between atoms: _241  and  _242
REMARK  101  A    between atoms: _252  and  _254
REMARK  102  A    between atoms: _254  and  _255
REMARK  103  A    between atoms: _254  and  _257
REMARK  104  A    between atoms: _257  and  _258
REMARK  105  A    between atoms: _263  and  _264
REMARK  106  A    between atoms: _266  and  _268
REMARK  107  A    between atoms: _268  and  _269
REMARK  108  A    between atoms: _268  and  _271
REMARK  109  A    between atoms: _271  and  _272
REMARK  110  A    between atoms: _272  and  _273
REMARK  111  A    between atoms: _275  and  _277
REMARK  112  A    between atoms: _277  and  _278
REMARK  113  A    between atoms: _277  and  _280
REMARK  114  A    between atoms: _280  and  _281
REMARK  115  A    between atoms: _281  and  _282
REMARK  116  A    between atoms: _282  and  _283
REMARK  117  A    between atoms: _292  and  _294
REMARK  118  A    between atoms: _294  and  _295
REMARK  119  A    between atoms: _294  and  _297
REMARK  120  A    between atoms: _297  and  _298
REMARK  121  A    between atoms: _298  and  _299
REMARK  122  A    between atoms: _304  and  _306
REMARK  123  A    between atoms: _306  and  _307
REMARK  124  A    between atoms: _310  and  _312
REMARK  125  A    between atoms: _312  and  _313
REMARK  126  A    between atoms: _312  and  _315
REMARK  127  A    between atoms: _315  and  _316
REMARK  128  A    between atoms: _316  and  _317
REMARK  129  A    between atoms: _317  and  _318
REMARK  130  A    between atoms: _327  and  _329
REMARK  131  A    between atoms: _329  and  _330
REMARK  132  A    between atoms: _329  and  _332
REMARK  133  A    between atoms: _332  and  _333
REMARK                            x       y       z     vdW  Elec       q    Type
REMARK                         _______ _______ _______ _____ _____    ______ ____
ROOT
ATOM      1  O   HOH     1     -20.580  22.383 -21.613  0.00  0.00    +0.000 OA
ENDROOT
TORSDOF 0
REMARK  Name = ../refined-set-2016/3jzg/3jzg_pocket.pdb
REMARK  133 active torsions:
REMARK  status: ('A' for Active; 'I' for Inactive)
REMARK    1  A    between atoms: _2  and  _3
REMARK    2  A    between atoms: _8  and  _10
REMARK    3  A    between atoms: _10  and  _11
REMARK    4  A    between atoms: _10  and  _13
REMARK    5  A    between atoms: _13  and  _14
REMARK    6  A    between atoms: _20  and  _22
REMARK    7  A    between atoms: _22  and  _23
REMARK    8  A    between atoms: _25  and  _27
REMARK    9  A    between atoms: _27  and  _28
REMARK   10  A    between atoms: _27  and  _30
REMARK   11  A    between atoms: _30  and  _31
REMARK   12  A    between atoms: _36  and  _38
REMARK   13  A    between atoms: _38  and  _39
REMARK   14  A    between atoms: _38  and  _41
REMARK   15  A    between atoms: _41  and  _42
REMARK   16  A    between atoms: _48  and  _50
REMARK   17  A    between atoms: _50  and  _51
REMARK   18  A    between atoms: _50  and  _53
REMARK   19  A    between atoms: _53  and  _54
REMARK   20  A    between atoms: _59  and  _60
REMARK   21  A    between atoms: _62  and  _64
REMARK   22  A    between atoms: _64  and  _65
REMARK   23  A    between atoms: _64  and  _67
REMARK   24  A    between atoms: _67  and  _68
REMARK   25  A    between atoms: _71  and  _73
REMARK   26  A    between atoms: _73  and  _74
REMARK   27  A    between atoms: _76  and  _78
REMARK   28  A    between atoms: _78  and  _79
REMARK   29  A    between atoms: _78  and  _81
REMARK   30  A    between atoms: _81  and  _82
REMARK   31  A    between atoms: _84  and  _86
REMARK   32  A    between atoms: _86  and  _87
REMARK   33  A    between atoms: _90  and  _92
REMARK   34  A    between atoms: _92  and  _93
REMARK   35  A    between atoms: _92  and  _95
REMARK   36  A    between atoms: _95  and  _96
REMARK   37  A    between atoms: _99  and  _101
REMARK   38  A    between atoms: _101  and  _102
REMARK   39  A    between atoms: _101  and  _104
REMARK   40  A    between atoms: _104  and  _105
REMARK   41  A    between atoms: _110  and  _112
REMARK   42  A    between atoms: _112  and  _113
REMARK   43  A    between atoms: _112  and  _115
REMARK   44  A    between atoms: _115  and  _116
REMARK   45  A    between atoms: _116  and  _117
REMARK   46  A    between atoms: _117  and  _118
REMARK   47  A    between atoms: _118  and  _119
REMARK   48  A    between atoms: _123  and  _125
REMARK   49  A    between atoms: _125  and  _126
REMARK   50  A    between atoms: _125  and  _128
REMARK   51  A    between atoms: _128  and  _129
REMARK   52  A    between atoms: _129  and  _130
REMARK   53  A    between atoms: _133  and  _135
REMARK   54  A    between atoms: _135  and  _136
REMARK   55  A    between atoms: _135  and  _138
REMARK   56  A    between atoms: _138  and  _139
REMARK   57  A    between atoms: _142  and  _144
REMARK   58  A    between atoms: _144  and  _145
REMARK   59  A    between atoms: _144  and  _147
REMARK   60  A    between atoms: _147  and  _148
REMARK   61  A    between atoms: _148  and  _149
REMARK   62  A    between atoms: _151  and  _153
REMARK   63  A    between atoms: _153  and  _154
REMARK   64  A    between atoms: _153  and  _156
REMARK   65  A    between atoms: _156  and  _157
REMARK   66  A    between atoms: _162  and  _164
REMARK   67  A    between atoms: _164  and  _165
REMARK   68  A    between atoms: _164  and  _167
REMARK   69  A    between atoms: _167  and  _168
REMARK   70  A    between atoms: _173  and  _175
REMARK   71  A    between atoms: _175  and  _176
REMARK   72  A    between atoms: _175  and  _178
REMARK   73  A    between atoms: _178  and  _179
REMARK   74  A    between atoms: _184  and  _185
REMARK   75  A    between atoms: _187  and  _189
REMARK   76  A    between atoms: _189  and  _190
REMARK   77  A    between atoms: _189  and  _192
REMARK   78  A    between atoms: _192  and  _193
REMARK   79  A    between atoms: _196  and  _198
REMARK   80  A    between atoms: _198  and  _199
REMARK   81  A    between atoms: _198  and  _201
REMARK   82  A    between atoms: _201  and  _202
REMARK   83  A    between atoms: _204  and  _206
REMARK   84  A    between atoms: _206  and  _207
REMARK   85  A    between atoms: _206  and  _209
REMARK   86  A    between atoms: _211  and  _213
REMARK   87  A    between atoms: _213  and  _214
REMARK   88  A    between atoms: _213  and  _216
REMARK   89  A    between atoms: _218  and  _220
REMARK   90  A    between atoms: _220  and  _221
REMARK   91  A    between atoms: _220  and  _223
REMARK   92  A    between atoms: _223  and  _224
REMARK   93  A    between atoms: _227  and  _229
REMARK   94  A    between atoms: _229  and  _230
REMARK   95  A    between atoms: _229  and  _232
REMARK   96  A    between atoms: _232  and  _233
REMARK   97  A    between atoms: _236  and  _238
REMARK   98  A    between atoms: _238  and  _239
REMARK   99  A    between atoms: _238  and  _241
REMARK  100  A    between atoms: _241  and  _242
REMARK  101  A    between atoms: _252  and  _254
REMARK  102  A    between atoms: _254  and  _255
REMARK  103  A    between atoms: _254  and  _257
REMARK  104  A    between atoms: _257  and  _258
REMARK  105  A    between atoms: _263  and  _264
REMARK  106  A    between atoms: _266  and  _268
REMARK  107  A    between atoms: _268  and  _269
REMARK  108  A    between atoms: _268  and  _271
REMARK  109  A    between atoms: _271  and  _272
REMARK  110  A    between atoms: _272  and  _273
REMARK  111  A    between atoms: _275  and  _277
REMARK  112  A    between atoms: _277  and  _278
REMARK  113  A    between atoms: _277  and  _280
REMARK  114  A    between atoms: _280  and  _281
REMARK  115  A    between atoms: _281  and  _282
REMARK  116  A    between atoms: _282  and  _283
REMARK  117  A    between atoms: _292  and  _294
REMARK  118  A    between atoms: _294  and  _295
REMARK  119  A    between atoms: _294  and  _297
REMARK  120  A    between atoms: _297  and  _298
REMARK  121  A    between atoms: _298  and  _299
REMARK  122  A    between atoms: _304  and  _306
REMARK  123  A    between atoms: _306  and  _307
REMARK  124  A    between atoms: _310  and  _312
REMARK  125  A    between atoms: _312  and  _313
REMARK  126  A    between atoms: _312  and  _315
REMARK  127  A    between atoms: _315  and  _316
REMARK  128  A    between atoms: _316  and  _317
REMARK  129  A    between atoms: _317  and  _318
REMARK  130  A    between atoms: _327  and  _329
REMARK  131  A    between atoms: _329  and  _330
REMARK  132  A    between atoms: _329  and  _332
REMARK  133  A    between atoms: _332  and  _333
REMARK                            x       y       z     vdW  Elec       q    Type
REMARK                         _______ _______ _______ _____ _____    ______ ____
ROOT
ATOM      1  O   HOH     1     -21.232  30.448 -25.768  0.00  0.00    +0.000 OA
ENDROOT
TORSDOF 0
REMARK  Name = ../refined-set-2016/3jzg/3jzg_pocket.pdb
REMARK  133 active torsions:
REMARK  status: ('A' for Active; 'I' for Inactive)
REMARK    1  A    between atoms: _2  and  _3
REMARK    2  A    between atoms: _8  and  _10
REMARK    3  A    between atoms: _10  and  _11
REMARK    4  A    between atoms: _10  and  _13
REMARK    5  A    between atoms: _13  and  _14
REMARK    6  A    between atoms: _20  and  _22
REMARK    7  A    between atoms: _22  and  _23
REMARK    8  A    between atoms: _25  and  _27
REMARK    9  A    between atoms: _27  and  _28
REMARK   10  A    between atoms: _27  and  _30
REMARK   11  A    between atoms: _30  and  _31
REMARK   12  A    between atoms: _36  and  _38
REMARK   13  A    between atoms: _38  and  _39
REMARK   14  A    between atoms: _38  and  _41
REMARK   15  A    between atoms: _41  and  _42
REMARK   16  A    between atoms: _48  and  _50
REMARK   17  A    between atoms: _50  and  _51
REMARK   18  A    between atoms: _50  and  _53
REMARK   19  A    between atoms: _53  and  _54
REMARK   20  A    between atoms: _59  and  _60
REMARK   21  A    between atoms: _62  and  _64
REMARK   22  A    between atoms: _64  and  _65
REMARK   23  A    between atoms: _64  and  _67
REMARK   24  A    between atoms: _67  and  _68
REMARK   25  A    between atoms: _71  and  _73
REMARK   26  A    between atoms: _73  and  _74
REMARK   27  A    between atoms: _76  and  _78
REMARK   28  A    between atoms: _78  and  _79
REMARK   29  A    between atoms: _78  and  _81
REMARK   30  A    between atoms: _81  and  _82
REMARK   31  A    between atoms: _84  and  _86
REMARK   32  A    between atoms: _86  and  _87
REMARK   33  A    between atoms: _90  and  _92
REMARK   34  A    between atoms: _92  and  _93
REMARK   35  A    between atoms: _92  and  _95
REMARK   36  A    between atoms: _95  and  _96
REMARK   37  A    between atoms: _99  and  _101
REMARK   38  A    between atoms: _101  and  _102
REMARK   39  A    between atoms: _101  and  _104
REMARK   40  A    between atoms: _104  and  _105
REMARK   41  A    between atoms: _110  and  _112
REMARK   42  A    between atoms: _112  and  _113
REMARK   43  A    between atoms: _112  and  _115
REMARK   44  A    between atoms: _115  and  _116
REMARK   45  A    between atoms: _116  and  _117
REMARK   46  A    between atoms: _117  and  _118
REMARK   47  A    between atoms: _118  and  _119
REMARK   48  A    between atoms: _123  and  _125
REMARK   49  A    between atoms: _125  and  _126
REMARK   50  A    between atoms: _125  and  _128
REMARK   51  A    between atoms: _128  and  _129
REMARK   52  A    between atoms: _129  and  _130
REMARK   53  A    between atoms: _133  and  _135
REMARK   54  A    between atoms: _135  and  _136
REMARK   55  A    between atoms: _135  and  _138
REMARK   56  A    between atoms: _138  and  _139
REMARK   57  A    between atoms: _142  and  _144
REMARK   58  A    between atoms: _144  and  _145
REMARK   59  A    between atoms: _144  and  _147
REMARK   60  A    between atoms: _147  and  _148
REMARK   61  A    between atoms: _148  and  _149
REMARK   62  A    between atoms: _151  and  _153
REMARK   63  A    between atoms: _153  and  _154
REMARK   64  A    between atoms: _153  and  _156
REMARK   65  A    between atoms: _156  and  _157
REMARK   66  A    between atoms: _162  and  _164
REMARK   67  A    between atoms: _164  and  _165
REMARK   68  A    between atoms: _164  and  _167
REMARK   69  A    between atoms: _167  and  _168
REMARK   70  A    between atoms: _173  and  _175
REMARK   71  A    between atoms: _175  and  _176
REMARK   72  A    between atoms: _175  and  _178
REMARK   73  A    between atoms: _178  and  _179
REMARK   74  A    between atoms: _184  and  _185
REMARK   75  A    between atoms: _187  and  _189
REMARK   76  A    between atoms: _189  and  _190
REMARK   77  A    between atoms: _189  and  _192
REMARK   78  A    between atoms: _192  and  _193
REMARK   79  A    between atoms: _196  and  _198
REMARK   80  A    between atoms: _198  and  _199
REMARK   81  A    between atoms: _198  and  _201
REMARK   82  A    between atoms: _201  and  _202
REMARK   83  A    between atoms: _204  and  _206
REMARK   84  A    between atoms: _206  and  _207
REMARK   85  A    between atoms: _206  and  _209
REMARK   86  A    between atoms: _211  and  _213
REMARK   87  A    between atoms: _213  and  _214
REMARK   88  A    between atoms: _213  and  _216
REMARK   89  A    between atoms: _218  and  _220
REMARK   90  A    between atoms: _220  and  _221
REMARK   91  A    between atoms: _220  and  _223
REMARK   92  A    between atoms: _223  and  _224
REMARK   93  A    between atoms: _227  and  _229
REMARK   94  A    between atoms: _229  and  _230
REMARK   95  A    between atoms: _229  and  _232
REMARK   96  A    between atoms: _232  and  _233
REMARK   97  A    between atoms: _236  and  _238
REMARK   98  A    between atoms: _238  and  _239
REMARK   99  A    between atoms: _238  and  _241
REMARK  100  A    between atoms: _241  and  _242
REMARK  101  A    between atoms: _252  and  _254
REMARK  102  A    between atoms: _254  and  _255
REMARK  103  A    between atoms: _254  and  _257
REMARK  104  A    between atoms: _257  and  _258
REMARK  105  A    between atoms: _263  and  _264
REMARK  106  A    between atoms: _266  and  _268
REMARK  107  A    between atoms: _268  and  _269
REMARK  108  A    between atoms: _268  and  _271
REMARK  109  A    between atoms: _271  and  _272
REMARK  110  A    between atoms: _272  and  _273
REMARK  111  A    between atoms: _275  and  _277
REMARK  112  A    between atoms: _277  and  _278
REMARK  113  A    between atoms: _277  and  _280
REMARK  114  A    between atoms: _280  and  _281
REMARK  115  A    between atoms: _281  and  _282
REMARK  116  A    between atoms: _282  and  _283
REMARK  117  A    between atoms: _292  and  _294
REMARK  118  A    between atoms: _294  and  _295
REMARK  119  A    between atoms: _294  and  _297
REMARK  120  A    between atoms: _297  and  _298
REMARK  121  A    between atoms: _298  and  _299
REMARK  122  A    between atoms: _304  and  _306
REMARK  123  A    between atoms: _306  and  _307
REMARK  124  A    between atoms: _310  and  _312
REMARK  125  A    between atoms: _312  and  _313
REMARK  126  A    between atoms: _312  and  _315
REMARK  127  A    between atoms: _315  and  _316
REMARK  128  A    between atoms: _316  and  _317
REMARK  129  A    between atoms: _317  and  _318
REMARK  130  A    between atoms: _327  and  _329
REMARK  131  A    between atoms: _329  and  _330
REMARK  132  A    between atoms: _329  and  _332
REMARK  133  A    between atoms: _332  and  _333
REMARK                            x       y       z     vdW  Elec       q    Type
REMARK                         _______ _______ _______ _____ _____    ______ ____
ROOT
ATOM      1  O   HOH     1     -19.227  19.748 -25.626  0.00  0.00    +0.000 OA
ENDROOT
TORSDOF 0
REMARK  Name = ../refined-set-2016/3jzg/3jzg_pocket.pdb
REMARK  133 active torsions:
REMARK  status: ('A' for Active; 'I' for Inactive)
REMARK    1  A    between atoms: _2  and  _3
REMARK    2  A    between atoms: _8  and  _10
REMARK    3  A    between atoms: _10  and  _11
REMARK    4  A    between atoms: _10  and  _13
REMARK    5  A    between atoms: _13  and  _14
REMARK    6  A    between atoms: _20  and  _22
REMARK    7  A    between atoms: _22  and  _23
REMARK    8  A    between atoms: _25  and  _27
REMARK    9  A    between atoms: _27  and  _28
REMARK   10  A    between atoms: _27  and  _30
REMARK   11  A    between atoms: _30  and  _31
REMARK   12  A    between atoms: _36  and  _38
REMARK   13  A    between atoms: _38  and  _39
REMARK   14  A    between atoms: _38  and  _41
REMARK   15  A    between atoms: _41  and  _42
REMARK   16  A    between atoms: _48  and  _50
REMARK   17  A    between atoms: _50  and  _51
REMARK   18  A    between atoms: _50  and  _53
REMARK   19  A    between atoms: _53  and  _54
REMARK   20  A    between atoms: _59  and  _60
REMARK   21  A    between atoms: _62  and  _64
REMARK   22  A    between atoms: _64  and  _65
REMARK   23  A    between atoms: _64  and  _67
REMARK   24  A    between atoms: _67  and  _68
REMARK   25  A    between atoms: _71  and  _73
REMARK   26  A    between atoms: _73  and  _74
REMARK   27  A    between atoms: _76  and  _78
REMARK   28  A    between atoms: _78  and  _79
REMARK   29  A    between atoms: _78  and  _81
REMARK   30  A    between atoms: _81  and  _82
REMARK   31  A    between atoms: _84  and  _86
REMARK   32  A    between atoms: _86  and  _87
REMARK   33  A    between atoms: _90  and  _92
REMARK   34  A    between atoms: _92  and  _93
REMARK   35  A    between atoms: _92  and  _95
REMARK   36  A    between atoms: _95  and  _96
REMARK   37  A    between atoms: _99  and  _101
REMARK   38  A    between atoms: _101  and  _102
REMARK   39  A    between atoms: _101  and  _104
REMARK   40  A    between atoms: _104  and  _105
REMARK   41  A    between atoms: _110  and  _112
REMARK   42  A    between atoms: _112  and  _113
REMARK   43  A    between atoms: _112  and  _115
REMARK   44  A    between atoms: _115  and  _116
REMARK   45  A    between atoms: _116  and  _117
REMARK   46  A    between atoms: _117  and  _118
REMARK   47  A    between atoms: _118  and  _119
REMARK   48  A    between atoms: _123  and  _125
REMARK   49  A    between atoms: _125  and  _126
REMARK   50  A    between atoms: _125  and  _128
REMARK   51  A    between atoms: _128  and  _129
REMARK   52  A    between atoms: _129  and  _130
REMARK   53  A    between atoms: _133  and  _135
REMARK   54  A    between atoms: _135  and  _136
REMARK   55  A    between atoms: _135  and  _138
REMARK   56  A    between atoms: _138  and  _139
REMARK   57  A    between atoms: _142  and  _144
REMARK   58  A    between atoms: _144  and  _145
REMARK   59  A    between atoms: _144  and  _147
REMARK   60  A    between atoms: _147  and  _148
REMARK   61  A    between atoms: _148  and  _149
REMARK   62  A    between atoms: _151  and  _153
REMARK   63  A    between atoms: _153  and  _154
REMARK   64  A    between atoms: _153  and  _156
REMARK   65  A    between atoms: _156  and  _157
REMARK   66  A    between atoms: _162  and  _164
REMARK   67  A    between atoms: _164  and  _165
REMARK   68  A    between atoms: _164  and  _167
REMARK   69  A    between atoms: _167  and  _168
REMARK   70  A    between atoms: _173  and  _175
REMARK   71  A    between atoms: _175  and  _176
REMARK   72  A    between atoms: _175  and  _178
REMARK   73  A    between atoms: _178  and  _179
REMARK   74  A    between atoms: _184  and  _185
REMARK   75  A    between atoms: _187  and  _189
REMARK   76  A    between atoms: _189  and  _190
REMARK   77  A    between atoms: _189  and  _192
REMARK   78  A    between atoms: _192  and  _193
REMARK   79  A    between atoms: _196  and  _198
REMARK   80  A    between atoms: _198  and  _199
REMARK   81  A    between atoms: _198  and  _201
REMARK   82  A    between atoms: _201  and  _202
REMARK   83  A    between atoms: _204  and  _206
REMARK   84  A    between atoms: _206  and  _207
REMARK   85  A    between atoms: _206  and  _209
REMARK   86  A    between atoms: _211  and  _213
REMARK   87  A    between atoms: _213  and  _214
REMARK   88  A    between atoms: _213  and  _216
REMARK   89  A    between atoms: _218  and  _220
REMARK   90  A    between atoms: _220  and  _221
REMARK   91  A    between atoms: _220  and  _223
REMARK   92  A    between atoms: _223  and  _224
REMARK   93  A    between atoms: _227  and  _229
REMARK   94  A    between atoms: _229  and  _230
REMARK   95  A    between atoms: _229  and  _232
REMARK   96  A    between atoms: _232  and  _233
REMARK   97  A    between atoms: _236  and  _238
REMARK   98  A    between atoms: _238  and  _239
REMARK   99  A    between atoms: _238  and  _241
REMARK  100  A    between atoms: _241  and  _242
REMARK  101  A    between atoms: _252  and  _254
REMARK  102  A    between atoms: _254  and  _255
REMARK  103  A    between atoms: _254  and  _257
REMARK  104  A    between atoms: _257  and  _258
REMARK  105  A    between atoms: _263  and  _264
REMARK  106  A    between atoms: _266  and  _268
REMARK  107  A    between atoms: _268  and  _269
REMARK  108  A    between atoms: _268  and  _271
REMARK  109  A    between atoms: _271  and  _272
REMARK  110  A    between atoms: _272  and  _273
REMARK  111  A    between atoms: _275  and  _277
REMARK  112  A    between atoms: _277  and  _278
REMARK  113  A    between atoms: _277  and  _280
REMARK  114  A    between atoms: _280  and  _281
REMARK  115  A    between atoms: _281  and  _282
REMARK  116  A    between atoms: _282  and  _283
REMARK  117  A    between atoms: _292  and  _294
REMARK  118  A    between atoms: _294  and  _295
REMARK  119  A    between atoms: _294  and  _297
REMARK  120  A    between atoms: _297  and  _298
REMARK  121  A    between atoms: _298  and  _299
REMARK  122  A    between atoms: _304  and  _306
REMARK  123  A    between atoms: _306  and  _307
REMARK  124  A    between atoms: _310  and  _312
REMARK  125  A    between atoms: _312  and  _313
REMARK  126  A    between atoms: _312  and  _315
REMARK  127  A    between atoms: _315  and  _316
REMARK  128  A    between atoms: _316  and  _317
REMARK  129  A    between atoms: _317  and  _318
REMARK  130  A    between atoms: _327  and  _329
REMARK  131  A    between atoms: _329  and  _330
REMARK  132  A    between atoms: _329  and  _332
REMARK  133  A    between atoms: _332  and  _333
REMARK                            x       y       z     vdW  Elec       q    Type
REMARK                         _______ _______ _______ _____ _____    ______ ____
ROOT
ATOM      1  O   HOH     1     -21.122  37.285 -22.963  0.00  0.00    +0.000 OA
ENDROOT
TORSDOF 0
REMARK  Name = ../refined-set-2016/3jzg/3jzg_pocket.pdb
REMARK  133 active torsions:
REMARK  status: ('A' for Active; 'I' for Inactive)
REMARK    1  A    between atoms: _2  and  _3
REMARK    2  A    between atoms: _8  and  _10
REMARK    3  A    between atoms: _10  and  _11
REMARK    4  A    between atoms: _10  and  _13
REMARK    5  A    between atoms: _13  and  _14
REMARK    6  A    between atoms: _20  and  _22
REMARK    7  A    between atoms: _22  and  _23
REMARK    8  A    between atoms: _25  and  _27
REMARK    9  A    between atoms: _27  and  _28
REMARK   10  A    between atoms: _27  and  _30
REMARK   11  A    between atoms: _30  and  _31
REMARK   12  A    between atoms: _36  and  _38
REMARK   13  A    between atoms: _38  and  _39
REMARK   14  A    between atoms: _38  and  _41
REMARK   15  A    between atoms: _41  and  _42
REMARK   16  A    between atoms: _48  and  _50
REMARK   17  A    between atoms: _50  and  _51
REMARK   18  A    between atoms: _50  and  _53
REMARK   19  A    between atoms: _53  and  _54
REMARK   20  A    between atoms: _59  and  _60
REMARK   21  A    between atoms: _62  and  _64
REMARK   22  A    between atoms: _64  and  _65
REMARK   23  A    between atoms: _64  and  _67
REMARK   24  A    between atoms: _67  and  _68
REMARK   25  A    between atoms: _71  and  _73
REMARK   26  A    between atoms: _73  and  _74
REMARK   27  A    between atoms: _76  and  _78
REMARK   28  A    between atoms: _78  and  _79
REMARK   29  A    between atoms: _78  and  _81
REMARK   30  A    between atoms: _81  and  _82
REMARK   31  A    between atoms: _84  and  _86
REMARK   32  A    between atoms: _86  and  _87
REMARK   33  A    between atoms: _90  and  _92
REMARK   34  A    between atoms: _92  and  _93
REMARK   35  A    between atoms: _92  and  _95
REMARK   36  A    between atoms: _95  and  _96
REMARK   37  A    between atoms: _99  and  _101
REMARK   38  A    between atoms: _101  and  _102
REMARK   39  A    between atoms: _101  and  _104
REMARK   40  A    between atoms: _104  and  _105
REMARK   41  A    between atoms: _110  and  _112
REMARK   42  A    between atoms: _112  and  _113
REMARK   43  A    between atoms: _112  and  _115
REMARK   44  A    between atoms: _115  and  _116
REMARK   45  A    between atoms: _116  and  _117
REMARK   46  A    between atoms: _117  and  _118
REMARK   47  A    between atoms: _118  and  _119
REMARK   48  A    between atoms: _123  and  _125
REMARK   49  A    between atoms: _125  and  _126
REMARK   50  A    between atoms: _125  and  _128
REMARK   51  A    between atoms: _128  and  _129
REMARK   52  A    between atoms: _129  and  _130
REMARK   53  A    between atoms: _133  and  _135
REMARK   54  A    between atoms: _135  and  _136
REMARK   55  A    between atoms: _135  and  _138
REMARK   56  A    between atoms: _138  and  _139
REMARK   57  A    between atoms: _142  and  _144
REMARK   58  A    between atoms: _144  and  _145
REMARK   59  A    between atoms: _144  and  _147
REMARK   60  A    between atoms: _147  and  _148
REMARK   61  A    between atoms: _148  and  _149
REMARK   62  A    between atoms: _151  and  _153
REMARK   63  A    between atoms: _153  and  _154
REMARK   64  A    between atoms: _153  and  _156
REMARK   65  A    between atoms: _156  and  _157
REMARK   66  A    between atoms: _162  and  _164
REMARK   67  A    between atoms: _164  and  _165
REMARK   68  A    between atoms: _164  and  _167
REMARK   69  A    between atoms: _167  and  _168
REMARK   70  A    between atoms: _173  and  _175
REMARK   71  A    between atoms: _175  and  _176
REMARK   72  A    between atoms: _175  and  _178
REMARK   73  A    between atoms: _178  and  _179
REMARK   74  A    between atoms: _184  and  _185
REMARK   75  A    between atoms: _187  and  _189
REMARK   76  A    between atoms: _189  and  _190
REMARK   77  A    between atoms: _189  and  _192
REMARK   78  A    between atoms: _192  and  _193
REMARK   79  A    between atoms: _196  and  _198
REMARK   80  A    between atoms: _198  and  _199
REMARK   81  A    between atoms: _198  and  _201
REMARK   82  A    between atoms: _201  and  _202
REMARK   83  A    between atoms: _204  and  _206
REMARK   84  A    between atoms: _206  and  _207
REMARK   85  A    between atoms: _206  and  _209
REMARK   86  A    between atoms: _211  and  _213
REMARK   87  A    between atoms: _213  and  _214
REMARK   88  A    between atoms: _213  and  _216
REMARK   89  A    between atoms: _218  and  _220
REMARK   90  A    between atoms: _220  and  _221
REMARK   91  A    between atoms: _220  and  _223
REMARK   92  A    between atoms: _223  and  _224
REMARK   93  A    between atoms: _227  and  _229
REMARK   94  A    between atoms: _229  and  _230
REMARK   95  A    between atoms: _229  and  _232
REMARK   96  A    between atoms: _232  and  _233
REMARK   97  A    between atoms: _236  and  _238
REMARK   98  A    between atoms: _238  and  _239
REMARK   99  A    between atoms: _238  and  _241
REMARK  100  A    between atoms: _241  and  _242
REMARK  101  A    between atoms: _252  and  _254
REMARK  102  A    between atoms: _254  and  _255
REMARK  103  A    between atoms: _254  and  _257
REMARK  104  A    between atoms: _257  and  _258
REMARK  105  A    between atoms: _263  and  _264
REMARK  106  A    between atoms: _266  and  _268
REMARK  107  A    between atoms: _268  and  _269
REMARK  108  A    between atoms: _268  and  _271
REMARK  109  A    between atoms: _271  and  _272
REMARK  110  A    between atoms: _272  and  _273
REMARK  111  A    between atoms: _275  and  _277
REMARK  112  A    between atoms: _277  and  _278
REMARK  113  A    between atoms: _277  and  _280
REMARK  114  A    between atoms: _280  and  _281
REMARK  115  A    between atoms: _281  and  _282
REMARK  116  A    between atoms: _282  and  _283
REMARK  117  A    between atoms: _292  and  _294
REMARK  118  A    between atoms: _294  and  _295
REMARK  119  A    between atoms: _294  and  _297
REMARK  120  A    between atoms: _297  and  _298
REMARK  121  A    between atoms: _298  and  _299
REMARK  122  A    between atoms: _304  and  _306
REMARK  123  A    between atoms: _306  and  _307
REMARK  124  A    between atoms: _310  and  _312
REMARK  125  A    between atoms: _312  and  _313
REMARK  126  A    between atoms: _312  and  _315
REMARK  127  A    between atoms: _315  and  _316
REMARK  128  A    between atoms: _316  and  _317
REMARK  129  A    between atoms: _317  and  _318
REMARK  130  A    between atoms: _327  and  _329
REMARK  131  A    between atoms: _329  and  _330
REMARK  132  A    between atoms: _329  and  _332
REMARK  133  A    between atoms: _332  and  _333
REMARK                            x       y       z     vdW  Elec       q    Type
REMARK                         _______ _______ _______ _____ _____    ______ ____
ROOT
ATOM      1  O   HOH     1     -20.622  25.159 -23.736  0.00  0.00    +0.000 OA
ENDROOT
TORSDOF 0
REMARK  Name = ../refined-set-2016/3jzg/3jzg_pocket.pdb
REMARK  133 active torsions:
REMARK  status: ('A' for Active; 'I' for Inactive)
REMARK    1  A    between atoms: _2  and  _3
REMARK    2  A    between atoms: _8  and  _10
REMARK    3  A    between atoms: _10  and  _11
REMARK    4  A    between atoms: _10  and  _13
REMARK    5  A    between atoms: _13  and  _14
REMARK    6  A    between atoms: _20  and  _22
REMARK    7  A    between atoms: _22  and  _23
REMARK    8  A    between atoms: _25  and  _27
REMARK    9  A    between atoms: _27  and  _28
REMARK   10  A    between atoms: _27  and  _30
REMARK   11  A    between atoms: _30  and  _31
REMARK   12  A    between atoms: _36  and  _38
REMARK   13  A    between atoms: _38  and  _39
REMARK   14  A    between atoms: _38  and  _41
REMARK   15  A    between atoms: _41  and  _42
REMARK   16  A    between atoms: _48  and  _50
REMARK   17  A    between atoms: _50  and  _51
REMARK   18  A    between atoms: _50  and  _53
REMARK   19  A    between atoms: _53  and  _54
REMARK   20  A    between atoms: _59  and  _60
REMARK   21  A    between atoms: _62  and  _64
REMARK   22  A    between atoms: _64  and  _65
REMARK   23  A    between atoms: _64  and  _67
REMARK   24  A    between atoms: _67  and  _68
REMARK   25  A    between atoms: _71  and  _73
REMARK   26  A    between atoms: _73  and  _74
REMARK   27  A    between atoms: _76  and  _78
REMARK   28  A    between atoms: _78  and  _79
REMARK   29  A    between atoms: _78  and  _81
REMARK   30  A    between atoms: _81  and  _82
REMARK   31  A    between atoms: _84  and  _86
REMARK   32  A    between atoms: _86  and  _87
REMARK   33  A    between atoms: _90  and  _92
REMARK   34  A    between atoms: _92  and  _93
REMARK   35  A    between atoms: _92  and  _95
REMARK   36  A    between atoms: _95  and  _96
REMARK   37  A    between atoms: _99  and  _101
REMARK   38  A    between atoms: _101  and  _102
REMARK   39  A    between atoms: _101  and  _104
REMARK   40  A    between atoms: _104  and  _105
REMARK   41  A    between atoms: _110  and  _112
REMARK   42  A    between atoms: _112  and  _113
REMARK   43  A    between atoms: _112  and  _115
REMARK   44  A    between atoms: _115  and  _116
REMARK   45  A    between atoms: _116  and  _117
REMARK   46  A    between atoms: _117  and  _118
REMARK   47  A    between atoms: _118  and  _119
REMARK   48  A    between atoms: _123  and  _125
REMARK   49  A    between atoms: _125  and  _126
REMARK   50  A    between atoms: _125  and  _128
REMARK   51  A    between atoms: _128  and  _129
REMARK   52  A    between atoms: _129  and  _130
REMARK   53  A    between atoms: _133  and  _135
REMARK   54  A    between atoms: _135  and  _136
REMARK   55  A    between atoms: _135  and  _138
REMARK   56  A    between atoms: _138  and  _139
REMARK   57  A    between atoms: _142  and  _144
REMARK   58  A    between atoms: _144  and  _145
REMARK   59  A    between atoms: _144  and  _147
REMARK   60  A    between atoms: _147  and  _148
REMARK   61  A    between atoms: _148  and  _149
REMARK   62  A    between atoms: _151  and  _153
REMARK   63  A    between atoms: _153  and  _154
REMARK   64  A    between atoms: _153  and  _156
REMARK   65  A    between atoms: _156  and  _157
REMARK   66  A    between atoms: _162  and  _164
REMARK   67  A    between atoms: _164  and  _165
REMARK   68  A    between atoms: _164  and  _167
REMARK   69  A    between atoms: _167  and  _168
REMARK   70  A    between atoms: _173  and  _175
REMARK   71  A    between atoms: _175  and  _176
REMARK   72  A    between atoms: _175  and  _178
REMARK   73  A    between atoms: _178  and  _179
REMARK   74  A    between atoms: _184  and  _185
REMARK   75  A    between atoms: _187  and  _189
REMARK   76  A    between atoms: _189  and  _190
REMARK   77  A    between atoms: _189  and  _192
REMARK   78  A    between atoms: _192  and  _193
REMARK   79  A    between atoms: _196  and  _198
REMARK   80  A    between atoms: _198  and  _199
REMARK   81  A    between atoms: _198  and  _201
REMARK   82  A    between atoms: _201  and  _202
REMARK   83  A    between atoms: _204  and  _206
REMARK   84  A    between atoms: _206  and  _207
REMARK   85  A    between atoms: _206  and  _209
REMARK   86  A    between atoms: _211  and  _213
REMARK   87  A    between atoms: _213  and  _214
REMARK   88  A    between atoms: _213  and  _216
REMARK   89  A    between atoms: _218  and  _220
REMARK   90  A    between atoms: _220  and  _221
REMARK   91  A    between atoms: _220  and  _223
REMARK   92  A    between atoms: _223  and  _224
REMARK   93  A    between atoms: _227  and  _229
REMARK   94  A    between atoms: _229  and  _230
REMARK   95  A    between atoms: _229  and  _232
REMARK   96  A    between atoms: _232  and  _233
REMARK   97  A    between atoms: _236  and  _238
REMARK   98  A    between atoms: _238  and  _239
REMARK   99  A    between atoms: _238  and  _241
REMARK  100  A    between atoms: _241  and  _242
REMARK  101  A    between atoms: _252  and  _254
REMARK  102  A    between atoms: _254  and  _255
REMARK  103  A    between atoms: _254  and  _257
REMARK  104  A    between atoms: _257  and  _258
REMARK  105  A    between atoms: _263  and  _264
REMARK  106  A    between atoms: _266  and  _268
REMARK  107  A    between atoms: _268  and  _269
REMARK  108  A    between atoms: _268  and  _271
REMARK  109  A    between atoms: _271  and  _272
REMARK  110  A    between atoms: _272  and  _273
REMARK  111  A    between atoms: _275  and  _277
REMARK  112  A    between atoms: _277  and  _278
REMARK  113  A    between atoms: _277  and  _280
REMARK  114  A    between atoms: _280  and  _281
REMARK  115  A    between atoms: _281  and  _282
REMARK  116  A    between atoms: _282  and  _283
REMARK  117  A    between atoms: _292  and  _294
REMARK  118  A    between atoms: _294  and  _295
REMARK  119  A    between atoms: _294  and  _297
REMARK  120  A    between atoms: _297  and  _298
REMARK  121  A    between atoms: _298  and  _299
REMARK  122  A    between atoms: _304  and  _306
REMARK  123  A    between atoms: _306  and  _307
REMARK  124  A    between atoms: _310  and  _312
REMARK  125  A    between atoms: _312  and  _313
REMARK  126  A    between atoms: _312  and  _315
REMARK  127  A    between atoms: _315  and  _316
REMARK  128  A    between atoms: _316  and  _317
REMARK  129  A    between atoms: _317  and  _318
REMARK  130  A    between atoms: _327  and  _329
REMARK  131  A    between atoms: _329  and  _330
REMARK  132  A    between atoms: _329  and  _332
REMARK  133  A    between atoms: _332  and  _333
REMARK                            x       y       z     vdW  Elec       q    Type
REMARK                         _______ _______ _______ _____ _____    ______ ____
ROOT
ATOM      1  O   HOH     1     -24.584  33.194 -19.388  0.00  0.00    +0.000 OA
ENDROOT
TORSDOF 0
REMARK  Name = ../refined-set-2016/3jzg/3jzg_pocket.pdb
REMARK  133 active torsions:
REMARK  status: ('A' for Active; 'I' for Inactive)
REMARK    1  A    between atoms: _2  and  _3
REMARK    2  A    between atoms: _8  and  _10
REMARK    3  A    between atoms: _10  and  _11
REMARK    4  A    between atoms: _10  and  _13
REMARK    5  A    between atoms: _13  and  _14
REMARK    6  A    between atoms: _20  and  _22
REMARK    7  A    between atoms: _22  and  _23
REMARK    8  A    between atoms: _25  and  _27
REMARK    9  A    between atoms: _27  and  _28
REMARK   10  A    between atoms: _27  and  _30
REMARK   11  A    between atoms: _30  and  _31
REMARK   12  A    between atoms: _36  and  _38
REMARK   13  A    between atoms: _38  and  _39
REMARK   14  A    between atoms: _38  and  _41
REMARK   15  A    between atoms: _41  and  _42
REMARK   16  A    between atoms: _48  and  _50
REMARK   17  A    between atoms: _50  and  _51
REMARK   18  A    between atoms: _50  and  _53
REMARK   19  A    between atoms: _53  and  _54
REMARK   20  A    between atoms: _59  and  _60
REMARK   21  A    between atoms: _62  and  _64
REMARK   22  A    between atoms: _64  and  _65
REMARK   23  A    between atoms: _64  and  _67
REMARK   24  A    between atoms: _67  and  _68
REMARK   25  A    between atoms: _71  and  _73
REMARK   26  A    between atoms: _73  and  _74
REMARK   27  A    between atoms: _76  and  _78
REMARK   28  A    between atoms: _78  and  _79
REMARK   29  A    between atoms: _78  and  _81
REMARK   30  A    between atoms: _81  and  _82
REMARK   31  A    between atoms: _84  and  _86
REMARK   32  A    between atoms: _86  and  _87
REMARK   33  A    between atoms: _90  and  _92
REMARK   34  A    between atoms: _92  and  _93
REMARK   35  A    between atoms: _92  and  _95
REMARK   36  A    between atoms: _95  and  _96
REMARK   37  A    between atoms: _99  and  _101
REMARK   38  A    between atoms: _101  and  _102
REMARK   39  A    between atoms: _101  and  _104
REMARK   40  A    between atoms: _104  and  _105
REMARK   41  A    between atoms: _110  and  _112
REMARK   42  A    between atoms: _112  and  _113
REMARK   43  A    between atoms: _112  and  _115
REMARK   44  A    between atoms: _115  and  _116
REMARK   45  A    between atoms: _116  and  _117
REMARK   46  A    between atoms: _117  and  _118
REMARK   47  A    between atoms: _118  and  _119
REMARK   48  A    between atoms: _123  and  _125
REMARK   49  A    between atoms: _125  and  _126
REMARK   50  A    between atoms: _125  and  _128
REMARK   51  A    between atoms: _128  and  _129
REMARK   52  A    between atoms: _129  and  _130
REMARK   53  A    between atoms: _133  and  _135
REMARK   54  A    between atoms: _135  and  _136
REMARK   55  A    between atoms: _135  and  _138
REMARK   56  A    between atoms: _138  and  _139
REMARK   57  A    between atoms: _142  and  _144
REMARK   58  A    between atoms: _144  and  _145
REMARK   59  A    between atoms: _144  and  _147
REMARK   60  A    between atoms: _147  and  _148
REMARK   61  A    between atoms: _148  and  _149
REMARK   62  A    between atoms: _151  and  _153
REMARK   63  A    between atoms: _153  and  _154
REMARK   64  A    between atoms: _153  and  _156
REMARK   65  A    between atoms: _156  and  _157
REMARK   66  A    between atoms: _162  and  _164
REMARK   67  A    between atoms: _164  and  _165
REMARK   68  A    between atoms: _164  and  _167
REMARK   69  A    between atoms: _167  and  _168
REMARK   70  A    between atoms: _173  and  _175
REMARK   71  A    between atoms: _175  and  _176
REMARK   72  A    between atoms: _175  and  _178
REMARK   73  A    between atoms: _178  and  _179
REMARK   74  A    between atoms: _184  and  _185
REMARK   75  A    between atoms: _187  and  _189
REMARK   76  A    between atoms: _189  and  _190
REMARK   77  A    between atoms: _189  and  _192
REMARK   78  A    between atoms: _192  and  _193
REMARK   79  A    between atoms: _196  and  _198
REMARK   80  A    between atoms: _198  and  _199
REMARK   81  A    between atoms: _198  and  _201
REMARK   82  A    between atoms: _201  and  _202
REMARK   83  A    between atoms: _204  and  _206
REMARK   84  A    between atoms: _206  and  _207
REMARK   85  A    between atoms: _206  and  _209
REMARK   86  A    between atoms: _211  and  _213
REMARK   87  A    between atoms: _213  and  _214
REMARK   88  A    between atoms: _213  and  _216
REMARK   89  A    between atoms: _218  and  _220
REMARK   90  A    between atoms: _220  and  _221
REMARK   91  A    between atoms: _220  and  _223
REMARK   92  A    between atoms: _223  and  _224
REMARK   93  A    between atoms: _227  and  _229
REMARK   94  A    between atoms: _229  and  _230
REMARK   95  A    between atoms: _229  and  _232
REMARK   96  A    between atoms: _232  and  _233
REMARK   97  A    between atoms: _236  and  _238
REMARK   98  A    between atoms: _238  and  _239
REMARK   99  A    between atoms: _238  and  _241
REMARK  100  A    between atoms: _241  and  _242
REMARK  101  A    between atoms: _252  and  _254
REMARK  102  A    between atoms: _254  and  _255
REMARK  103  A    between atoms: _254  and  _257
REMARK  104  A    between atoms: _257  and  _258
REMARK  105  A    between atoms: _263  and  _264
REMARK  106  A    between atoms: _266  and  _268
REMARK  107  A    between atoms: _268  and  _269
REMARK  108  A    between atoms: _268  and  _271
REMARK  109  A    between atoms: _271  and  _272
REMARK  110  A    between atoms: _272  and  _273
REMARK  111  A    between atoms: _275  and  _277
REMARK  112  A    between atoms: _277  and  _278
REMARK  113  A    between atoms: _277  and  _280
REMARK  114  A    between atoms: _280  and  _281
REMARK  115  A    between atoms: _281  and  _282
REMARK  116  A    between atoms: _282  and  _283
REMARK  117  A    between atoms: _292  and  _294
REMARK  118  A    between atoms: _294  and  _295
REMARK  119  A    between atoms: _294  and  _297
REMARK  120  A    between atoms: _297  and  _298
REMARK  121  A    between atoms: _298  and  _299
REMARK  122  A    between atoms: _304  and  _306
REMARK  123  A    between atoms: _306  and  _307
REMARK  124  A    between atoms: _310  and  _312
REMARK  125  A    between atoms: _312  and  _313
REMARK  126  A    between atoms: _312  and  _315
REMARK  127  A    between atoms: _315  and  _316
REMARK  128  A    between atoms: _316  and  _317
REMARK  129  A    between atoms: _317  and  _318
REMARK  130  A    between atoms: _327  and  _329
REMARK  131  A    between atoms: _329  and  _330
REMARK  132  A    between atoms: _329  and  _332
REMARK  133  A    between atoms: _332  and  _333
REMARK                            x       y       z     vdW  Elec       q    Type
REMARK                         _______ _______ _______ _____ _____    ______ ____
ROOT
ATOM      1  O   HOH     1     -22.968  30.868 -23.359  0.00  0.00    +0.000 OA
ENDROOT
TORSDOF 0
REMARK  Name = ../refined-set-2016/3jzg/3jzg_pocket.pdb
REMARK  133 active torsions:
REMARK  status: ('A' for Active; 'I' for Inactive)
REMARK    1  A    between atoms: _2  and  _3
REMARK    2  A    between atoms: _8  and  _10
REMARK    3  A    between atoms: _10  and  _11
REMARK    4  A    between atoms: _10  and  _13
REMARK    5  A    between atoms: _13  and  _14
REMARK    6  A    between atoms: _20  and  _22
REMARK    7  A    between atoms: _22  and  _23
REMARK    8  A    between atoms: _25  and  _27
REMARK    9  A    between atoms: _27  and  _28
REMARK   10  A    between atoms: _27  and  _30
REMARK   11  A    between atoms: _30  and  _31
REMARK   12  A    between atoms: _36  and  _38
REMARK   13  A    between atoms: _38  and  _39
REMARK   14  A    between atoms: _38  and  _41
REMARK   15  A    between atoms: _41  and  _42
REMARK   16  A    between atoms: _48  and  _50
REMARK   17  A    between atoms: _50  and  _51
REMARK   18  A    between atoms: _50  and  _53
REMARK   19  A    between atoms: _53  and  _54
REMARK   20  A    between atoms: _59  and  _60
REMARK   21  A    between atoms: _62  and  _64
REMARK   22  A    between atoms: _64  and  _65
REMARK   23  A    between atoms: _64  and  _67
REMARK   24  A    between atoms: _67  and  _68
REMARK   25  A    between atoms: _71  and  _73
REMARK   26  A    between atoms: _73  and  _74
REMARK   27  A    between atoms: _76  and  _78
REMARK   28  A    between atoms: _78  and  _79
REMARK   29  A    between atoms: _78  and  _81
REMARK   30  A    between atoms: _81  and  _82
REMARK   31  A    between atoms: _84  and  _86
REMARK   32  A    between atoms: _86  and  _87
REMARK   33  A    between atoms: _90  and  _92
REMARK   34  A    between atoms: _92  and  _93
REMARK   35  A    between atoms: _92  and  _95
REMARK   36  A    between atoms: _95  and  _96
REMARK   37  A    between atoms: _99  and  _101
REMARK   38  A    between atoms: _101  and  _102
REMARK   39  A    between atoms: _101  and  _104
REMARK   40  A    between atoms: _104  and  _105
REMARK   41  A    between atoms: _110  and  _112
REMARK   42  A    between atoms: _112  and  _113
REMARK   43  A    between atoms: _112  and  _115
REMARK   44  A    between atoms: _115  and  _116
REMARK   45  A    between atoms: _116  and  _117
REMARK   46  A    between atoms: _117  and  _118
REMARK   47  A    between atoms: _118  and  _119
REMARK   48  A    between atoms: _123  and  _125
REMARK   49  A    between atoms: _125  and  _126
REMARK   50  A    between atoms: _125  and  _128
REMARK   51  A    between atoms: _128  and  _129
REMARK   52  A    between atoms: _129  and  _130
REMARK   53  A    between atoms: _133  and  _135
REMARK   54  A    between atoms: _135  and  _136
REMARK   55  A    between atoms: _135  and  _138
REMARK   56  A    between atoms: _138  and  _139
REMARK   57  A    between atoms: _142  and  _144
REMARK   58  A    between atoms: _144  and  _145
REMARK   59  A    between atoms: _144  and  _147
REMARK   60  A    between atoms: _147  and  _148
REMARK   61  A    between atoms: _148  and  _149
REMARK   62  A    between atoms: _151  and  _153
REMARK   63  A    between atoms: _153  and  _154
REMARK   64  A    between atoms: _153  and  _156
REMARK   65  A    between atoms: _156  and  _157
REMARK   66  A    between atoms: _162  and  _164
REMARK   67  A    between atoms: _164  and  _165
REMARK   68  A    between atoms: _164  and  _167
REMARK   69  A    between atoms: _167  and  _168
REMARK   70  A    between atoms: _173  and  _175
REMARK   71  A    between atoms: _175  and  _176
REMARK   72  A    between atoms: _175  and  _178
REMARK   73  A    between atoms: _178  and  _179
REMARK   74  A    between atoms: _184  and  _185
REMARK   75  A    between atoms: _187  and  _189
REMARK   76  A    between atoms: _189  and  _190
REMARK   77  A    between atoms: _189  and  _192
REMARK   78  A    between atoms: _192  and  _193
REMARK   79  A    between atoms: _196  and  _198
REMARK   80  A    between atoms: _198  and  _199
REMARK   81  A    between atoms: _198  and  _201
REMARK   82  A    between atoms: _201  and  _202
REMARK   83  A    between atoms: _204  and  _206
REMARK   84  A    between atoms: _206  and  _207
REMARK   85  A    between atoms: _206  and  _209
REMARK   86  A    between atoms: _211  and  _213
REMARK   87  A    between atoms: _213  and  _214
REMARK   88  A    between atoms: _213  and  _216
REMARK   89  A    between atoms: _218  and  _220
REMARK   90  A    between atoms: _220  and  _221
REMARK   91  A    between atoms: _220  and  _223
REMARK   92  A    between atoms: _223  and  _224
REMARK   93  A    between atoms: _227  and  _229
REMARK   94  A    between atoms: _229  and  _230
REMARK   95  A    between atoms: _229  and  _232
REMARK   96  A    between atoms: _232  and  _233
REMARK   97  A    between atoms: _236  and  _238
REMARK   98  A    between atoms: _238  and  _239
REMARK   99  A    between atoms: _238  and  _241
REMARK  100  A    between atoms: _241  and  _242
REMARK  101  A    between atoms: _252  and  _254
REMARK  102  A    between atoms: _254  and  _255
REMARK  103  A    between atoms: _254  and  _257
REMARK  104  A    between atoms: _257  and  _258
REMARK  105  A    between atoms: _263  and  _264
REMARK  106  A    between atoms: _266  and  _268
REMARK  107  A    between atoms: _268  and  _269
REMARK  108  A    between atoms: _268  and  _271
REMARK  109  A    between atoms: _271  and  _272
REMARK  110  A    between atoms: _272  and  _273
REMARK  111  A    between atoms: _275  and  _277
REMARK  112  A    between atoms: _277  and  _278
REMARK  113  A    between atoms: _277  and  _280
REMARK  114  A    between atoms: _280  and  _281
REMARK  115  A    between atoms: _281  and  _282
REMARK  116  A    between atoms: _282  and  _283
REMARK  117  A    between atoms: _292  and  _294
REMARK  118  A    between atoms: _294  and  _295
REMARK  119  A    between atoms: _294  and  _297
REMARK  120  A    between atoms: _297  and  _298
REMARK  121  A    between atoms: _298  and  _299
REMARK  122  A    between atoms: _304  and  _306
REMARK  123  A    between atoms: _306  and  _307
REMARK  124  A    between atoms: _310  and  _312
REMARK  125  A    between atoms: _312  and  _313
REMARK  126  A    between atoms: _312  and  _315
REMARK  127  A    between atoms: _315  and  _316
REMARK  128  A    between atoms: _316  and  _317
REMARK  129  A    between atoms: _317  and  _318
REMARK  130  A    between atoms: _327  and  _329
REMARK  131  A    between atoms: _329  and  _330
REMARK  132  A    between atoms: _329  and  _332
REMARK  133  A    between atoms: _332  and  _333
REMARK                            x       y       z     vdW  Elec       q    Type
REMARK                         _______ _______ _______ _____ _____    ______ ____
ROOT
ATOM      1  O   HOH     1     -20.678  39.652 -25.232  0.00  0.00    +0.000 OA
ENDROOT
TORSDOF 0
REMARK  Name = ../refined-set-2016/3jzg/3jzg_pocket.pdb
REMARK  133 active torsions:
REMARK  status: ('A' for Active; 'I' for Inactive)
REMARK    1  A    between atoms: _2  and  _3
REMARK    2  A    between atoms: _8  and  _10
REMARK    3  A    between atoms: _10  and  _11
REMARK    4  A    between atoms: _10  and  _13
REMARK    5  A    between atoms: _13  and  _14
REMARK    6  A    between atoms: _20  and  _22
REMARK    7  A    between atoms: _22  and  _23
REMARK    8  A    between atoms: _25  and  _27
REMARK    9  A    between atoms: _27  and  _28
REMARK   10  A    between atoms: _27  and  _30
REMARK   11  A    between atoms: _30  and  _31
REMARK   12  A    between atoms: _36  and  _38
REMARK   13  A    between atoms: _38  and  _39
REMARK   14  A    between atoms: _38  and  _41
REMARK   15  A    between atoms: _41  and  _42
REMARK   16  A    between atoms: _48  and  _50
REMARK   17  A    between atoms: _50  and  _51
REMARK   18  A    between atoms: _50  and  _53
REMARK   19  A    between atoms: _53  and  _54
REMARK   20  A    between atoms: _59  and  _60
REMARK   21  A    between atoms: _62  and  _64
REMARK   22  A    between atoms: _64  and  _65
REMARK   23  A    between atoms: _64  and  _67
REMARK   24  A    between atoms: _67  and  _68
REMARK   25  A    between atoms: _71  and  _73
REMARK   26  A    between atoms: _73  and  _74
REMARK   27  A    between atoms: _76  and  _78
REMARK   28  A    between atoms: _78  and  _79
REMARK   29  A    between atoms: _78  and  _81
REMARK   30  A    between atoms: _81  and  _82
REMARK   31  A    between atoms: _84  and  _86
REMARK   32  A    between atoms: _86  and  _87
REMARK   33  A    between atoms: _90  and  _92
REMARK   34  A    between atoms: _92  and  _93
REMARK   35  A    between atoms: _92  and  _95
REMARK   36  A    between atoms: _95  and  _96
REMARK   37  A    between atoms: _99  and  _101
REMARK   38  A    between atoms: _101  and  _102
REMARK   39  A    between atoms: _101  and  _104
REMARK   40  A    between atoms: _104  and  _105
REMARK   41  A    between atoms: _110  and  _112
REMARK   42  A    between atoms: _112  and  _113
REMARK   43  A    between atoms: _112  and  _115
REMARK   44  A    between atoms: _115  and  _116
REMARK   45  A    between atoms: _116  and  _117
REMARK   46  A    between atoms: _117  and  _118
REMARK   47  A    between atoms: _118  and  _119
REMARK   48  A    between atoms: _123  and  _125
REMARK   49  A    between atoms: _125  and  _126
REMARK   50  A    between atoms: _125  and  _128
REMARK   51  A    between atoms: _128  and  _129
REMARK   52  A    between atoms: _129  and  _130
REMARK   53  A    between atoms: _133  and  _135
REMARK   54  A    between atoms: _135  and  _136
REMARK   55  A    between atoms: _135  and  _138
REMARK   56  A    between atoms: _138  and  _139
REMARK   57  A    between atoms: _142  and  _144
REMARK   58  A    between atoms: _144  and  _145
REMARK   59  A    between atoms: _144  and  _147
REMARK   60  A    between atoms: _147  and  _148
REMARK   61  A    between atoms: _148  and  _149
REMARK   62  A    between atoms: _151  and  _153
REMARK   63  A    between atoms: _153  and  _154
REMARK   64  A    between atoms: _153  and  _156
REMARK   65  A    between atoms: _156  and  _157
REMARK   66  A    between atoms: _162  and  _164
REMARK   67  A    between atoms: _164  and  _165
REMARK   68  A    between atoms: _164  and  _167
REMARK   69  A    between atoms: _167  and  _168
REMARK   70  A    between atoms: _173  and  _175
REMARK   71  A    between atoms: _175  and  _176
REMARK   72  A    between atoms: _175  and  _178
REMARK   73  A    between atoms: _178  and  _179
REMARK   74  A    between atoms: _184  and  _185
REMARK   75  A    between atoms: _187  and  _189
REMARK   76  A    between atoms: _189  and  _190
REMARK   77  A    between atoms: _189  and  _192
REMARK   78  A    between atoms: _192  and  _193
REMARK   79  A    between atoms: _196  and  _198
REMARK   80  A    between atoms: _198  and  _199
REMARK   81  A    between atoms: _198  and  _201
REMARK   82  A    between atoms: _201  and  _202
REMARK   83  A    between atoms: _204  and  _206
REMARK   84  A    between atoms: _206  and  _207
REMARK   85  A    between atoms: _206  and  _209
REMARK   86  A    between atoms: _211  and  _213
REMARK   87  A    between atoms: _213  and  _214
REMARK   88  A    between atoms: _213  and  _216
REMARK   89  A    between atoms: _218  and  _220
REMARK   90  A    between atoms: _220  and  _221
REMARK   91  A    between atoms: _220  and  _223
REMARK   92  A    between atoms: _223  and  _224
REMARK   93  A    between atoms: _227  and  _229
REMARK   94  A    between atoms: _229  and  _230
REMARK   95  A    between atoms: _229  and  _232
REMARK   96  A    between atoms: _232  and  _233
REMARK   97  A    between atoms: _236  and  _238
REMARK   98  A    between atoms: _238  and  _239
REMARK   99  A    between atoms: _238  and  _241
REMARK  100  A    between atoms: _241  and  _242
REMARK  101  A    between atoms: _252  and  _254
REMARK  102  A    between atoms: _254  and  _255
REMARK  103  A    between atoms: _254  and  _257
REMARK  104  A    between atoms: _257  and  _258
REMARK  105  A    between atoms: _263  and  _264
REMARK  106  A    between atoms: _266  and  _268
REMARK  107  A    between atoms: _268  and  _269
REMARK  108  A    between atoms: _268  and  _271
REMARK  109  A    between atoms: _271  and  _272
REMARK  110  A    between atoms: _272  and  _273
REMARK  111  A    between atoms: _275  and  _277
REMARK  112  A    between atoms: _277  and  _278
REMARK  113  A    between atoms: _277  and  _280
REMARK  114  A    between atoms: _280  and  _281
REMARK  115  A    between atoms: _281  and  _282
REMARK  116  A    between atoms: _282  and  _283
REMARK  117  A    between atoms: _292  and  _294
REMARK  118  A    between atoms: _294  and  _295
REMARK  119  A    between atoms: _294  and  _297
REMARK  120  A    between atoms: _297  and  _298
REMARK  121  A    between atoms: _298  and  _299
REMARK  122  A    between atoms: _304  and  _306
REMARK  123  A    between atoms: _306  and  _307
REMARK  124  A    between atoms: _310  and  _312
REMARK  125  A    between atoms: _312  and  _313
REMARK  126  A    between atoms: _312  and  _315
REMARK  127  A    between atoms: _315  and  _316
REMARK  128  A    between atoms: _316  and  _317
REMARK  129  A    between atoms: _317  and  _318
REMARK  130  A    between atoms: _327  and  _329
REMARK  131  A    between atoms: _329  and  _330
REMARK  132  A    between atoms: _329  and  _332
REMARK  133  A    between atoms: _332  and  _333
REMARK                            x       y       z     vdW  Elec       q    Type
REMARK                         _______ _______ _______ _____ _____    ______ ____
ROOT
ATOM      1  O   HOH     1     -22.272  38.406 -19.940  0.00  0.00    +0.000 OA
ENDROOT
TORSDOF 0
REMARK  Name = ../refined-set-2016/3jzg/3jzg_pocket.pdb
REMARK  133 active torsions:
REMARK  status: ('A' for Active; 'I' for Inactive)
REMARK    1  A    between atoms: _2  and  _3
REMARK    2  A    between atoms: _8  and  _10
REMARK    3  A    between atoms: _10  and  _11
REMARK    4  A    between atoms: _10  and  _13
REMARK    5  A    between atoms: _13  and  _14
REMARK    6  A    between atoms: _20  and  _22
REMARK    7  A    between atoms: _22  and  _23
REMARK    8  A    between atoms: _25  and  _27
REMARK    9  A    between atoms: _27  and  _28
REMARK   10  A    between atoms: _27  and  _30
REMARK   11  A    between atoms: _30  and  _31
REMARK   12  A    between atoms: _36  and  _38
REMARK   13  A    between atoms: _38  and  _39
REMARK   14  A    between atoms: _38  and  _41
REMARK   15  A    between atoms: _41  and  _42
REMARK   16  A    between atoms: _48  and  _50
REMARK   17  A    between atoms: _50  and  _51
REMARK   18  A    between atoms: _50  and  _53
REMARK   19  A    between atoms: _53  and  _54
REMARK   20  A    between atoms: _59  and  _60
REMARK   21  A    between atoms: _62  and  _64
REMARK   22  A    between atoms: _64  and  _65
REMARK   23  A    between atoms: _64  and  _67
REMARK   24  A    between atoms: _67  and  _68
REMARK   25  A    between atoms: _71  and  _73
REMARK   26  A    between atoms: _73  and  _74
REMARK   27  A    between atoms: _76  and  _78
REMARK   28  A    between atoms: _78  and  _79
REMARK   29  A    between atoms: _78  and  _81
REMARK   30  A    between atoms: _81  and  _82
REMARK   31  A    between atoms: _84  and  _86
REMARK   32  A    between atoms: _86  and  _87
REMARK   33  A    between atoms: _90  and  _92
REMARK   34  A    between atoms: _92  and  _93
REMARK   35  A    between atoms: _92  and  _95
REMARK   36  A    between atoms: _95  and  _96
REMARK   37  A    between atoms: _99  and  _101
REMARK   38  A    between atoms: _101  and  _102
REMARK   39  A    between atoms: _101  and  _104
REMARK   40  A    between atoms: _104  and  _105
REMARK   41  A    between atoms: _110  and  _112
REMARK   42  A    between atoms: _112  and  _113
REMARK   43  A    between atoms: _112  and  _115
REMARK   44  A    between atoms: _115  and  _116
REMARK   45  A    between atoms: _116  and  _117
REMARK   46  A    between atoms: _117  and  _118
REMARK   47  A    between atoms: _118  and  _119
REMARK   48  A    between atoms: _123  and  _125
REMARK   49  A    between atoms: _125  and  _126
REMARK   50  A    between atoms: _125  and  _128
REMARK   51  A    between atoms: _128  and  _129
REMARK   52  A    between atoms: _129  and  _130
REMARK   53  A    between atoms: _133  and  _135
REMARK   54  A    between atoms: _135  and  _136
REMARK   55  A    between atoms: _135  and  _138
REMARK   56  A    between atoms: _138  and  _139
REMARK   57  A    between atoms: _142  and  _144
REMARK   58  A    between atoms: _144  and  _145
REMARK   59  A    between atoms: _144  and  _147
REMARK   60  A    between atoms: _147  and  _148
REMARK   61  A    between atoms: _148  and  _149
REMARK   62  A    between atoms: _151  and  _153
REMARK   63  A    between atoms: _153  and  _154
REMARK   64  A    between atoms: _153  and  _156
REMARK   65  A    between atoms: _156  and  _157
REMARK   66  A    between atoms: _162  and  _164
REMARK   67  A    between atoms: _164  and  _165
REMARK   68  A    between atoms: _164  and  _167
REMARK   69  A    between atoms: _167  and  _168
REMARK   70  A    between atoms: _173  and  _175
REMARK   71  A    between atoms: _175  and  _176
REMARK   72  A    between atoms: _175  and  _178
REMARK   73  A    between atoms: _178  and  _179
REMARK   74  A    between atoms: _184  and  _185
REMARK   75  A    between atoms: _187  and  _189
REMARK   76  A    between atoms: _189  and  _190
REMARK   77  A    between atoms: _189  and  _192
REMARK   78  A    between atoms: _192  and  _193
REMARK   79  A    between atoms: _196  and  _198
REMARK   80  A    between atoms: _198  and  _199
REMARK   81  A    between atoms: _198  and  _201
REMARK   82  A    between atoms: _201  and  _202
REMARK   83  A    between atoms: _204  and  _206
REMARK   84  A    between atoms: _206  and  _207
REMARK   85  A    between atoms: _206  and  _209
REMARK   86  A    between atoms: _211  and  _213
REMARK   87  A    between atoms: _213  and  _214
REMARK   88  A    between atoms: _213  and  _216
REMARK   89  A    between atoms: _218  and  _220
REMARK   90  A    between atoms: _220  and  _221
REMARK   91  A    between atoms: _220  and  _223
REMARK   92  A    between atoms: _223  and  _224
REMARK   93  A    between atoms: _227  and  _229
REMARK   94  A    between atoms: _229  and  _230
REMARK   95  A    between atoms: _229  and  _232
REMARK   96  A    between atoms: _232  and  _233
REMARK   97  A    between atoms: _236  and  _238
REMARK   98  A    between atoms: _238  and  _239
REMARK   99  A    between atoms: _238  and  _241
REMARK  100  A    between atoms: _241  and  _242
REMARK  101  A    between atoms: _252  and  _254
REMARK  102  A    between atoms: _254  and  _255
REMARK  103  A    between atoms: _254  and  _257
REMARK  104  A    between atoms: _257  and  _258
REMARK  105  A    between atoms: _263  and  _264
REMARK  106  A    between atoms: _266  and  _268
REMARK  107  A    between atoms: _268  and  _269
REMARK  108  A    between atoms: _268  and  _271
REMARK  109  A    between atoms: _271  and  _272
REMARK  110  A    between atoms: _272  and  _273
REMARK  111  A    between atoms: _275  and  _277
REMARK  112  A    between atoms: _277  and  _278
REMARK  113  A    between atoms: _277  and  _280
REMARK  114  A    between atoms: _280  and  _281
REMARK  115  A    between atoms: _281  and  _282
REMARK  116  A    between atoms: _282  and  _283
REMARK  117  A    between atoms: _292  and  _294
REMARK  118  A    between atoms: _294  and  _295
REMARK  119  A    between atoms: _294  and  _297
REMARK  120  A    between atoms: _297  and  _298
REMARK  121  A    between atoms: _298  and  _299
REMARK  122  A    between atoms: _304  and  _306
REMARK  123  A    between atoms: _306  and  _307
REMARK  124  A    between atoms: _310  and  _312
REMARK  125  A    between atoms: _312  and  _313
REMARK  126  A    between atoms: _312  and  _315
REMARK  127  A    between atoms: _315  and  _316
REMARK  128  A    between atoms: _316  and  _317
REMARK  129  A    between atoms: _317  and  _318
REMARK  130  A    between atoms: _327  and  _329
REMARK  131  A    between atoms: _329  and  _330
REMARK  132  A    between atoms: _329  and  _332
REMARK  133  A    between atoms: _332  and  _333
REMARK                            x       y       z     vdW  Elec       q    Type
REMARK                         _______ _______ _______ _____ _____    ______ ____
ROOT
ATOM      1  O   HOH     1     -22.347  41.419 -21.214  0.00  0.00    +0.000 OA
ENDROOT
TORSDOF 0
REMARK  Name = ../refined-set-2016/3jzg/3jzg_pocket.pdb
REMARK  133 active torsions:
REMARK  status: ('A' for Active; 'I' for Inactive)
REMARK    1  A    between atoms: _2  and  _3
REMARK    2  A    between atoms: _8  and  _10
REMARK    3  A    between atoms: _10  and  _11
REMARK    4  A    between atoms: _10  and  _13
REMARK    5  A    between atoms: _13  and  _14
REMARK    6  A    between atoms: _20  and  _22
REMARK    7  A    between atoms: _22  and  _23
REMARK    8  A    between atoms: _25  and  _27
REMARK    9  A    between atoms: _27  and  _28
REMARK   10  A    between atoms: _27  and  _30
REMARK   11  A    between atoms: _30  and  _31
REMARK   12  A    between atoms: _36  and  _38
REMARK   13  A    between atoms: _38  and  _39
REMARK   14  A    between atoms: _38  and  _41
REMARK   15  A    between atoms: _41  and  _42
REMARK   16  A    between atoms: _48  and  _50
REMARK   17  A    between atoms: _50  and  _51
REMARK   18  A    between atoms: _50  and  _53
REMARK   19  A    between atoms: _53  and  _54
REMARK   20  A    between atoms: _59  and  _60
REMARK   21  A    between atoms: _62  and  _64
REMARK   22  A    between atoms: _64  and  _65
REMARK   23  A    between atoms: _64  and  _67
REMARK   24  A    between atoms: _67  and  _68
REMARK   25  A    between atoms: _71  and  _73
REMARK   26  A    between atoms: _73  and  _74
REMARK   27  A    between atoms: _76  and  _78
REMARK   28  A    between atoms: _78  and  _79
REMARK   29  A    between atoms: _78  and  _81
REMARK   30  A    between atoms: _81  and  _82
REMARK   31  A    between atoms: _84  and  _86
REMARK   32  A    between atoms: _86  and  _87
REMARK   33  A    between atoms: _90  and  _92
REMARK   34  A    between atoms: _92  and  _93
REMARK   35  A    between atoms: _92  and  _95
REMARK   36  A    between atoms: _95  and  _96
REMARK   37  A    between atoms: _99  and  _101
REMARK   38  A    between atoms: _101  and  _102
REMARK   39  A    between atoms: _101  and  _104
REMARK   40  A    between atoms: _104  and  _105
REMARK   41  A    between atoms: _110  and  _112
REMARK   42  A    between atoms: _112  and  _113
REMARK   43  A    between atoms: _112  and  _115
REMARK   44  A    between atoms: _115  and  _116
REMARK   45  A    between atoms: _116  and  _117
REMARK   46  A    between atoms: _117  and  _118
REMARK   47  A    between atoms: _118  and  _119
REMARK   48  A    between atoms: _123  and  _125
REMARK   49  A    between atoms: _125  and  _126
REMARK   50  A    between atoms: _125  and  _128
REMARK   51  A    between atoms: _128  and  _129
REMARK   52  A    between atoms: _129  and  _130
REMARK   53  A    between atoms: _133  and  _135
REMARK   54  A    between atoms: _135  and  _136
REMARK   55  A    between atoms: _135  and  _138
REMARK   56  A    between atoms: _138  and  _139
REMARK   57  A    between atoms: _142  and  _144
REMARK   58  A    between atoms: _144  and  _145
REMARK   59  A    between atoms: _144  and  _147
REMARK   60  A    between atoms: _147  and  _148
REMARK   61  A    between atoms: _148  and  _149
REMARK   62  A    between atoms: _151  and  _153
REMARK   63  A    between atoms: _153  and  _154
REMARK   64  A    between atoms: _153  and  _156
REMARK   65  A    between atoms: _156  and  _157
REMARK   66  A    between atoms: _162  and  _164
REMARK   67  A    between atoms: _164  and  _165
REMARK   68  A    between atoms: _164  and  _167
REMARK   69  A    between atoms: _167  and  _168
REMARK   70  A    between atoms: _173  and  _175
REMARK   71  A    between atoms: _175  and  _176
REMARK   72  A    between atoms: _175  and  _178
REMARK   73  A    between atoms: _178  and  _179
REMARK   74  A    between atoms: _184  and  _185
REMARK   75  A    between atoms: _187  and  _189
REMARK   76  A    between atoms: _189  and  _190
REMARK   77  A    between atoms: _189  and  _192
REMARK   78  A    between atoms: _192  and  _193
REMARK   79  A    between atoms: _196  and  _198
REMARK   80  A    between atoms: _198  and  _199
REMARK   81  A    between atoms: _198  and  _201
REMARK   82  A    between atoms: _201  and  _202
REMARK   83  A    between atoms: _204  and  _206
REMARK   84  A    between atoms: _206  and  _207
REMARK   85  A    between atoms: _206  and  _209
REMARK   86  A    between atoms: _211  and  _213
REMARK   87  A    between atoms: _213  and  _214
REMARK   88  A    between atoms: _213  and  _216
REMARK   89  A    between atoms: _218  and  _220
REMARK   90  A    between atoms: _220  and  _221
REMARK   91  A    between atoms: _220  and  _223
REMARK   92  A    between atoms: _223  and  _224
REMARK   93  A    between atoms: _227  and  _229
REMARK   94  A    between atoms: _229  and  _230
REMARK   95  A    between atoms: _229  and  _232
REMARK   96  A    between atoms: _232  and  _233
REMARK   97  A    between atoms: _236  and  _238
REMARK   98  A    between atoms: _238  and  _239
REMARK   99  A    between atoms: _238  and  _241
REMARK  100  A    between atoms: _241  and  _242
REMARK  101  A    between atoms: _252  and  _254
REMARK  102  A    between atoms: _254  and  _255
REMARK  103  A    between atoms: _254  and  _257
REMARK  104  A    between atoms: _257  and  _258
REMARK  105  A    between atoms: _263  and  _264
REMARK  106  A    between atoms: _266  and  _268
REMARK  107  A    between atoms: _268  and  _269
REMARK  108  A    between atoms: _268  and  _271
REMARK  109  A    between atoms: _271  and  _272
REMARK  110  A    between atoms: _272  and  _273
REMARK  111  A    between atoms: _275  and  _277
REMARK  112  A    between atoms: _277  and  _278
REMARK  113  A    between atoms: _277  and  _280
REMARK  114  A    between atoms: _280  and  _281
REMARK  115  A    between atoms: _281  and  _282
REMARK  116  A    between atoms: _282  and  _283
REMARK  117  A    between atoms: _292  and  _294
REMARK  118  A    between atoms: _294  and  _295
REMARK  119  A    between atoms: _294  and  _297
REMARK  120  A    between atoms: _297  and  _298
REMARK  121  A    between atoms: _298  and  _299
REMARK  122  A    between atoms: _304  and  _306
REMARK  123  A    between atoms: _306  and  _307
REMARK  124  A    between atoms: _310  and  _312
REMARK  125  A    between atoms: _312  and  _313
REMARK  126  A    between atoms: _312  and  _315
REMARK  127  A    between atoms: _315  and  _316
REMARK  128  A    between atoms: _316  and  _317
REMARK  129  A    between atoms: _317  and  _318
REMARK  130  A    between atoms: _327  and  _329
REMARK  131  A    between atoms: _329  and  _330
REMARK  132  A    between atoms: _329  and  _332
REMARK  133  A    between atoms: _332  and  _333
REMARK                            x       y       z     vdW  Elec       q    Type
REMARK                         _______ _______ _______ _____ _____    ______ ____
ROOT
ATOM      1  O   HOH     1     -20.506  28.876 -29.431  0.00  0.00    +0.000 OA
ENDROOT
TORSDOF 0
