REMARK  Name = ../refined-set-2016/1ew8/1ew8_pocket.pdb
REMARK  125 active torsions:
REMARK  status: ('A' for Active; 'I' for Inactive)
REMARK    1  A    between atoms: _1  and  _3
REMARK    2  A    between atoms: _3  and  _4
REMARK    3  A    between atoms: _3  and  _6
REMARK    4  A    between atoms: _6  and  _7
REMARK    5  A    between atoms: _7  and  _8
REMARK    6  A    between atoms: _8  and  ZN_301
REMARK    7  A    between atoms: _10  and  _12
REMARK    8  A    between atoms: _12  and  _13
REMARK    9  A    between atoms: _15  and  _17
REMARK   10  A    between atoms: _17  and  _18
REMARK   11  A    between atoms: _17  and  _20
REMARK   12  A    between atoms: _20  and  _21
REMARK   13  A    between atoms: _21  and  _22
REMARK   14  A    between atoms: _24  and  _26
REMARK   15  A    between atoms: _26  and  _27
REMARK   16  A    between atoms: _26  and  _29
REMARK   17  A    between atoms: _29  and  _30
REMARK   18  A    between atoms: _33  and  _35
REMARK   19  A    between atoms: _35  and  _36
REMARK   20  A    between atoms: _35  and  _38
REMARK   21  A    between atoms: _38  and  _39
REMARK   22  A    between atoms: _42  and  _44
REMARK   23  A    between atoms: _44  and  _45
REMARK   24  A    between atoms: _44  and  _47
REMARK   25  A    between atoms: _47  and  _48
REMARK   26  A    between atoms: _50  and  _52
REMARK   27  A    between atoms: _52  and  _53
REMARK   28  A    between atoms: _56  and  _58
REMARK   29  A    between atoms: _58  and  _59
REMARK   30  A    between atoms: _62  and  _64
REMARK   31  A    between atoms: _64  and  _65
REMARK   32  A    between atoms: _64  and  _67
REMARK   33  A    between atoms: _67  and  _68
REMARK   34  A    between atoms: _70  and  _72
REMARK   35  A    between atoms: _72  and  _73
REMARK   36  A    between atoms: _76  and  _78
REMARK   37  A    between atoms: _78  and  _79
REMARK   38  A    between atoms: _78  and  _81
REMARK   39  A    between atoms: _81  and  _82
REMARK   40  A    between atoms: _87  and  _89
REMARK   41  A    between atoms: _89  and  _90
REMARK   42  A    between atoms: _92  and  _94
REMARK   43  A    between atoms: _94  and  _95
REMARK   44  A    between atoms: _98  and  _100
REMARK   45  A    between atoms: _100  and  _101
REMARK   46  A    between atoms: _100  and  _103
REMARK   47  A    between atoms: _103  and  _104
REMARK   48  A    between atoms: _109  and  _110
REMARK   49  A    between atoms: _113  and  _115
REMARK   50  A    between atoms: _115  and  _116
REMARK   51  A    between atoms: _115  and  _118
REMARK   52  A    between atoms: _118  and  _119
REMARK   53  A    between atoms: _123  and  _124
REMARK   54  A    between atoms: _129  and  _131
REMARK   55  A    between atoms: _131  and  _132
REMARK   56  A    between atoms: _131  and  _134
REMARK   57  A    between atoms: _134  and  _135
REMARK   58  A    between atoms: _135  and  _136
REMARK   59  A    between atoms: _136  and  _137
REMARK   60  A    between atoms: _146  and  _148
REMARK   61  A    between atoms: _148  and  _149
REMARK   62  A    between atoms: _148  and  _151
REMARK   63  A    between atoms: _151  and  _152
REMARK   64  A    between atoms: _152  and  _153
REMARK   65  A    between atoms: _153  and  _154
REMARK   66  A    between atoms: _154  and  _155
REMARK   67  A    between atoms: _159  and  _161
REMARK   68  A    between atoms: _161  and  _162
REMARK   69  A    between atoms: _161  and  _164
REMARK   70  A    between atoms: _164  and  _165
REMARK   71  A    between atoms: _170  and  _171
REMARK   72  A    between atoms: _173  and  _175
REMARK   73  A    between atoms: _175  and  _176
REMARK   74  A    between atoms: _175  and  _178
REMARK   75  A    between atoms: _178  and  _179
REMARK   76  A    between atoms: _179  and  _180
REMARK   77  A    between atoms: _180  and  _182
REMARK   78  A    between atoms: _182  and  MG_302
REMARK   79  A    between atoms: _183  and  _185
REMARK   80  A    between atoms: _185  and  _186
REMARK   81  A    between atoms: _189  and  _191
REMARK   82  A    between atoms: _191  and  _192
REMARK   83  A    between atoms: _191  and  _194
REMARK   84  A    between atoms: _194  and  _195
REMARK   85  A    between atoms: _195  and  _196
REMARK   86  A    between atoms: _196  and  ZN_300
REMARK   87  A    between atoms: _198  and  _200
REMARK   88  A    between atoms: _200  and  _201
REMARK   89  A    between atoms: _200  and  _203
REMARK   90  A    between atoms: _203  and  _204
REMARK   91  A    between atoms: _204  and  _205
REMARK   92  A    between atoms: _205  and  _206
REMARK   93  A    between atoms: _206  and  _207
REMARK   94  A    between atoms: _211  and  _213
REMARK   95  A    between atoms: _213  and  _214
REMARK   96  A    between atoms: _213  and  _216
REMARK   97  A    between atoms: _216  and  _217
REMARK   98  A    between atoms: _221  and  ZN_300
REMARK   99  A    between atoms: _222  and  _224
REMARK  100  A    between atoms: _233  and  _234
REMARK  101  A    between atoms: _242  and  _244
REMARK  102  A    between atoms: _244  and  _245
REMARK  103  A    between atoms: _248  and  _250
REMARK  104  A    between atoms: _250  and  _251
REMARK  105  A    between atoms: _250  and  _253
REMARK  106  A    between atoms: _253  and  _254
REMARK  107  A    between atoms: _259  and  _261
REMARK  108  A    between atoms: _261  and  _262
REMARK  109  A    between atoms: _261  and  _264
REMARK  110  A    between atoms: _264  and  _265
REMARK  111  A    between atoms: _267  and  _269
REMARK  112  A    between atoms: _269  and  _270
REMARK  113  A    between atoms: _269  and  _272
REMARK  114  A    between atoms: _272  and  _273
REMARK  115  A    between atoms: _273  and  _274
REMARK  116  A    between atoms: _279  and  _281
REMARK  117  A    between atoms: _281  and  _282
REMARK  118  A    between atoms: _281  and  _284
REMARK  119  A    between atoms: _284  and  _285
REMARK  120  A    between atoms: _285  and  _286
REMARK  121  A    between atoms: _289  and  _291
REMARK  122  A    between atoms: _291  and  _292
REMARK  123  A    between atoms: _291  and  _294
REMARK  124  A    between atoms: _294  and  _295
REMARK  125  A    between atoms: _299  and  ZN_300
REMARK                            x       y       z     vdW  Elec       q    Type
REMARK                         _______ _______ _______ _____ _____    ______ ____
ROOT
ATOM      1 ZN   UNK A   2      73.081  38.728  39.851  0.00  0.00    +0.000 Zn
ATOM      2  N   UNK A   2      72.650  36.751  39.698  0.00  0.00    +0.000 N 
ATOM      3  C   UNK A   2      71.419  36.282  39.750  0.00  0.00    +0.000 A 
ATOM      4  N   UNK A   2      71.316  35.290  38.878  0.00  0.00    +0.000 NA
ATOM      5  C   UNK A   2      72.526  35.092  38.264  0.00  0.00    +0.000 A 
ATOM      6  C   UNK A   2      72.727  34.078  37.174  0.00  0.00    +0.000 C 
ATOM      7  C   UNK A   2      72.040  34.514  35.864  0.00  0.00    +0.000 C 
ATOM      8  N   UNK A   2      72.432  35.868  35.513  0.00  0.00    +0.000 N 
ATOM      9  H   UNK A   2      71.762  36.639  35.709  0.00  0.00    +0.000 HD
ATOM     10  C   UNK A   1      73.587  36.174  34.961  0.00  0.00    +0.000 C 
ATOM     11  O   UNK A   1      74.475  35.350  34.731  0.00  0.00    +0.000 OA
ATOM     12  C   UNK A   1      73.793  37.645  34.640  0.00  0.00    +0.000 C 
ATOM     13  C   UNK A   1      74.391  38.355  35.849  0.00  0.00    +0.000 C 
ATOM     14  C   UNK A   1      73.394  38.557  36.970  0.00  0.00    +0.000 C 
ATOM     15  O   UNK A   1      72.181  38.467  36.724  0.00  0.00    +0.000 OA
ATOM     16  C   UNK A   2      73.365  36.030  38.761  0.00  0.00    +0.000 A 
ATOM     17  O   UNK A   2      73.850  38.813  38.107  0.00  0.00    +0.000 OA
ENDROOT
BRANCH   7  18
ATOM     18  C   UNK A   2      70.511  34.466  36.043  0.00  0.00    +0.000 C 
ATOM     19  N   MET A   3      70.013  33.331  36.466  0.00  0.00    +0.000 N 
ATOM     20  H   MET A   3      70.689  32.556  36.619  0.00  0.00    +0.000 HD
ATOM     21  O   UNK A   2      69.848  35.469  35.772  0.00  0.00    +0.000 OA
BRANCH  19  22
ATOM     22  CA  MET A   3      68.640  33.043  36.740  0.00  0.00    +0.000 C 
ATOM     23  CB  MET A   3      68.127  31.815  36.061  0.00  0.00    +0.000 C 
BRANCH  22  24
ATOM     24  C   MET A   3      68.294  33.168  38.194  0.00  0.00    +0.000 C 
ATOM     25  O   MET A   3      69.152  33.483  39.040  0.00  0.00    +0.000 OA
ATOM     26  N   HIS A   4      67.006  33.032  38.548  0.00  0.00    +0.000 N 
ATOM     27  H   HIS A   4      66.297  32.737  37.847  0.00  0.00    +0.000 HD
BRANCH  26  28
ATOM     28  CA  HIS A   4      66.612  33.302  39.926  0.00  0.00    +0.000 C 
BRANCH  28  29
ATOM     29  C   HIS A   4      65.513  32.370  40.406  0.00  0.00    +0.000 C 
ATOM     30  O   HIS A   4      65.192  31.413  39.688  0.00  0.00    +0.000 OA
ENDBRANCH  28  29
BRANCH  28  31
ATOM     31  CB  HIS A   4      66.201  34.771  40.073  0.00  0.00    +0.000 C 
BRANCH  31  32
ATOM     32  CG  HIS A   4      66.815  35.437  41.258  0.00  0.00    +0.000 A 
ATOM     33  ND1 HIS A   4      66.592  34.976  42.549  0.00  0.00    +0.000 NA
ATOM     34  CE1 HIS A   4      67.269  35.738  43.385  0.00  0.00    +0.000 A 
ATOM     35  NE2 HIS A   4      67.923  36.659  42.694  0.00  0.00    +0.000 NA
ATOM     36  CD2 HIS A   4      67.664  36.489  41.357  0.00  0.00    +0.000 A 
ENDBRANCH  31  32
ENDBRANCH  28  31
ENDBRANCH  26  28
ENDBRANCH  22  24
ENDBRANCH  19  22
ENDBRANCH   7  18
BRANCH  12  37
ATOM     37  N   UNK A   1      72.557  38.304  34.210  0.00  0.00    +0.000 NA
ATOM     38  H   UNK A   1      72.051  38.917  34.881  0.00  0.00    +0.000 HD
ENDBRANCH  12  37
BRANCH   1  39
ATOM     39  O   UNK A   2      71.696  40.008  39.607  0.00  0.00    +0.000 OA
BRANCH  39  40
ATOM     40  C   UNK A   1      72.008  41.134  39.151  0.00  0.00    +0.000 C 
ATOM     41  O   UNK A   1      73.162  41.614  39.267  0.00  0.00    +0.000 OA
BRANCH  40  42
ATOM     42  C   UNK A   1      70.963  41.981  38.450  0.00  0.00    +0.000 C 
BRANCH  42  43
ATOM     43  C   UNK A   1      70.292  41.286  37.287  0.00  0.00    +0.000 C 
BRANCH  43  44
ATOM     44  C   UNK A   1      69.235  40.287  37.752  0.00  0.00    +0.000 C 
ATOM     45  O   UNK A   1      68.192  40.685  38.268  0.00  0.00    +0.000 OA
ATOM     46  N   UNK A   2      69.504  39.011  37.558  0.00  0.00    +0.000 N 
ATOM     47  H   UNK A   2      70.421  38.780  37.126  0.00  0.00    +0.000 HD
BRANCH  46  48
ATOM     48  C   UNK A   2      68.645  37.917  37.890  0.00  0.00    +0.000 C 
BRANCH  48  49
ATOM     49  C   UNK A   2      67.395  37.822  37.060  0.00  0.00    +0.000 C 
ATOM     50  O   UNK A   2      66.434  37.128  37.423  0.00  0.00    +0.000 OA
ATOM     51  N   MET A   3      67.361  38.524  35.921  0.00  0.00    +0.000 N 
ATOM     52  H   MET A   3      68.203  39.067  35.642  0.00  0.00    +0.000 HD
BRANCH  51  53
ATOM     53  CA  MET A   3      66.209  38.555  35.073  0.00  0.00    +0.000 C 
BRANCH  53  54
ATOM     54  C   MET A   3      66.124  37.404  34.082  0.00  0.00    +0.000 C 
ATOM     55  O   MET A   3      66.356  37.594  32.885  0.00  0.00    +0.000 OA
ENDBRANCH  53  54
BRANCH  53  56
ATOM     56  CB  MET A   3      66.101  39.879  34.309  0.00  0.00    +0.000 C 
BRANCH  56  57
ATOM     57  CG  MET A   3      64.899  39.892  33.351  0.00  0.00    +0.000 C 
BRANCH  57  58
ATOM     58  SD  MET A   3      64.752  41.462  32.471  0.00  0.00    +0.000 S 
ATOM     59  CE  MET A   3      65.961  41.204  31.168  0.00  0.00    +0.000 C 
ENDBRANCH  57  58
ENDBRANCH  56  57
ENDBRANCH  53  56
ENDBRANCH  51  53
ENDBRANCH  48  49
ENDBRANCH  46  48
ENDBRANCH  43  44
BRANCH  43  60
ATOM     60  N   UNK A   1      69.679  42.263  36.364  0.00  0.00    +0.000 NA
ATOM     61  H   UNK A   1      69.671  43.277  36.594  0.00  0.00    +0.000 HD
ENDBRANCH  43  60
ENDBRANCH  42  43
ENDBRANCH  40  42
ENDBRANCH  39  40
ENDBRANCH   1  39
TORSDOF 21
REMARK  Name = ../refined-set-2016/1ew8/1ew8_pocket.pdb
REMARK  125 active torsions:
REMARK  status: ('A' for Active; 'I' for Inactive)
REMARK    1  A    between atoms: _1  and  _3
REMARK    2  A    between atoms: _3  and  _4
REMARK    3  A    between atoms: _3  and  _6
REMARK    4  A    between atoms: _6  and  _7
REMARK    5  A    between atoms: _7  and  _8
REMARK    6  A    between atoms: _8  and  ZN_301
REMARK    7  A    between atoms: _10  and  _12
REMARK    8  A    between atoms: _12  and  _13
REMARK    9  A    between atoms: _15  and  _17
REMARK   10  A    between atoms: _17  and  _18
REMARK   11  A    between atoms: _17  and  _20
REMARK   12  A    between atoms: _20  and  _21
REMARK   13  A    between atoms: _21  and  _22
REMARK   14  A    between atoms: _24  and  _26
REMARK   15  A    between atoms: _26  and  _27
REMARK   16  A    between atoms: _26  and  _29
REMARK   17  A    between atoms: _29  and  _30
REMARK   18  A    between atoms: _33  and  _35
REMARK   19  A    between atoms: _35  and  _36
REMARK   20  A    between atoms: _35  and  _38
REMARK   21  A    between atoms: _38  and  _39
REMARK   22  A    between atoms: _42  and  _44
REMARK   23  A    between atoms: _44  and  _45
REMARK   24  A    between atoms: _44  and  _47
REMARK   25  A    between atoms: _47  and  _48
REMARK   26  A    between atoms: _50  and  _52
REMARK   27  A    between atoms: _52  and  _53
REMARK   28  A    between atoms: _56  and  _58
REMARK   29  A    between atoms: _58  and  _59
REMARK   30  A    between atoms: _62  and  _64
REMARK   31  A    between atoms: _64  and  _65
REMARK   32  A    between atoms: _64  and  _67
REMARK   33  A    between atoms: _67  and  _68
REMARK   34  A    between atoms: _70  and  _72
REMARK   35  A    between atoms: _72  and  _73
REMARK   36  A    between atoms: _76  and  _78
REMARK   37  A    between atoms: _78  and  _79
REMARK   38  A    between atoms: _78  and  _81
REMARK   39  A    between atoms: _81  and  _82
REMARK   40  A    between atoms: _87  and  _89
REMARK   41  A    between atoms: _89  and  _90
REMARK   42  A    between atoms: _92  and  _94
REMARK   43  A    between atoms: _94  and  _95
REMARK   44  A    between atoms: _98  and  _100
REMARK   45  A    between atoms: _100  and  _101
REMARK   46  A    between atoms: _100  and  _103
REMARK   47  A    between atoms: _103  and  _104
REMARK   48  A    between atoms: _109  and  _110
REMARK   49  A    between atoms: _113  and  _115
REMARK   50  A    between atoms: _115  and  _116
REMARK   51  A    between atoms: _115  and  _118
REMARK   52  A    between atoms: _118  and  _119
REMARK   53  A    between atoms: _123  and  _124
REMARK   54  A    between atoms: _129  and  _131
REMARK   55  A    between atoms: _131  and  _132
REMARK   56  A    between atoms: _131  and  _134
REMARK   57  A    between atoms: _134  and  _135
REMARK   58  A    between atoms: _135  and  _136
REMARK   59  A    between atoms: _136  and  _137
REMARK   60  A    between atoms: _146  and  _148
REMARK   61  A    between atoms: _148  and  _149
REMARK   62  A    between atoms: _148  and  _151
REMARK   63  A    between atoms: _151  and  _152
REMARK   64  A    between atoms: _152  and  _153
REMARK   65  A    between atoms: _153  and  _154
REMARK   66  A    between atoms: _154  and  _155
REMARK   67  A    between atoms: _159  and  _161
REMARK   68  A    between atoms: _161  and  _162
REMARK   69  A    between atoms: _161  and  _164
REMARK   70  A    between atoms: _164  and  _165
REMARK   71  A    between atoms: _170  and  _171
REMARK   72  A    between atoms: _173  and  _175
REMARK   73  A    between atoms: _175  and  _176
REMARK   74  A    between atoms: _175  and  _178
REMARK   75  A    between atoms: _178  and  _179
REMARK   76  A    between atoms: _179  and  _180
REMARK   77  A    between atoms: _180  and  _182
REMARK   78  A    between atoms: _182  and  MG_302
REMARK   79  A    between atoms: _183  and  _185
REMARK   80  A    between atoms: _185  and  _186
REMARK   81  A    between atoms: _189  and  _191
REMARK   82  A    between atoms: _191  and  _192
REMARK   83  A    between atoms: _191  and  _194
REMARK   84  A    between atoms: _194  and  _195
REMARK   85  A    between atoms: _195  and  _196
REMARK   86  A    between atoms: _196  and  ZN_300
REMARK   87  A    between atoms: _198  and  _200
REMARK   88  A    between atoms: _200  and  _201
REMARK   89  A    between atoms: _200  and  _203
REMARK   90  A    between atoms: _203  and  _204
REMARK   91  A    between atoms: _204  and  _205
REMARK   92  A    between atoms: _205  and  _206
REMARK   93  A    between atoms: _206  and  _207
REMARK   94  A    between atoms: _211  and  _213
REMARK   95  A    between atoms: _213  and  _214
REMARK   96  A    between atoms: _213  and  _216
REMARK   97  A    between atoms: _216  and  _217
REMARK   98  A    between atoms: _221  and  ZN_300
REMARK   99  A    between atoms: _222  and  _224
REMARK  100  A    between atoms: _233  and  _234
REMARK  101  A    between atoms: _242  and  _244
REMARK  102  A    between atoms: _244  and  _245
REMARK  103  A    between atoms: _248  and  _250
REMARK  104  A    between atoms: _250  and  _251
REMARK  105  A    between atoms: _250  and  _253
REMARK  106  A    between atoms: _253  and  _254
REMARK  107  A    between atoms: _259  and  _261
REMARK  108  A    between atoms: _261  and  _262
REMARK  109  A    between atoms: _261  and  _264
REMARK  110  A    between atoms: _264  and  _265
REMARK  111  A    between atoms: _267  and  _269
REMARK  112  A    between atoms: _269  and  _270
REMARK  113  A    between atoms: _269  and  _272
REMARK  114  A    between atoms: _272  and  _273
REMARK  115  A    between atoms: _273  and  _274
REMARK  116  A    between atoms: _279  and  _281
REMARK  117  A    between atoms: _281  and  _282
REMARK  118  A    between atoms: _281  and  _284
REMARK  119  A    between atoms: _284  and  _285
REMARK  120  A    between atoms: _285  and  _286
REMARK  121  A    between atoms: _289  and  _291
REMARK  122  A    between atoms: _291  and  _292
REMARK  123  A    between atoms: _291  and  _294
REMARK  124  A    between atoms: _294  and  _295
REMARK  125  A    between atoms: _299  and  ZN_300
REMARK                            x       y       z     vdW  Elec       q    Type
REMARK                         _______ _______ _______ _____ _____    ______ ____
ROOT
ATOM      1  C   SER A   3      78.285  38.611  39.673  0.00  0.00    +0.243 C 
ATOM      2  N   ALA A   4      79.158  38.389  40.641  0.00  0.00    -0.297 N 
ATOM      3  H   ALA A   4      78.837  37.937  41.521  0.00  0.00    +0.150 HD
ATOM      4  O   SER A   3      78.599  39.136  38.597  0.00  0.00    -0.273 OA
ENDROOT
BRANCH   2   5
ATOM      5  CA  ALA A   4      80.556  38.762  40.505  0.00  0.00    +0.149 C 
ATOM      6  CB  ALA A   4      81.283  38.757  41.809  0.00  0.00    +0.031 C 
BRANCH   5   7
ATOM      7  C   ALA A   4      81.259  38.041  39.385  0.00  0.00    +0.241 C 
ATOM      8  N   ALA A   5      81.245  36.706  39.409  0.00  0.00    -0.297 N 
ATOM      9  H   ALA A   5      80.773  36.240  40.210  0.00  0.00    +0.150 HD
ATOM     10  O   ALA A   4      81.767  38.682  38.462  0.00  0.00    -0.273 OA
BRANCH   8  11
ATOM     11  CA  ALA A   5      81.838  35.872  38.404  0.00  0.00    +0.149 C 
ATOM     12  CB  ALA A   5      81.930  34.401  38.826  0.00  0.00    +0.031 C 
BRANCH  11  13
ATOM     13  C   ALA A   5      81.164  35.952  37.057  0.00  0.00    +0.241 C 
ATOM     14  N   SER A   6      79.893  36.322  37.032  0.00  0.00    -0.295 N 
ATOM     15  H   SER A   6      79.391  36.538  37.917  0.00  0.00    +0.150 HD
ATOM     16  O   ALA A   5      81.794  35.642  36.032  0.00  0.00    -0.273 OA
BRANCH  14  17
ATOM     17  CA  SER A   6      79.192  36.425  35.728  0.00  0.00    +0.178 C 
BRANCH  17  18
ATOM     18  C   SER A   6      79.533  37.677  34.994  0.00  0.00    +0.243 C 
ATOM     19  N   ALA A   7      79.476  38.828  35.696  0.00  0.00    -0.298 N 
ATOM     20  H   ALA A   7      79.171  38.835  36.690  0.00  0.00    +0.150 HD
ATOM     21  O   SER A   6      79.899  37.745  33.816  0.00  0.00    -0.273 OA
BRANCH  19  22
ATOM     22  CA  ALA A   7      79.855  40.059  35.019  0.00  0.00    +0.137 C 
ATOM     23  CB  ALA A   7      79.581  41.266  35.890  0.00  0.00    +0.030 C 
BRANCH  22  24
ATOM     24  C   ALA A   7      81.328  39.999  34.617  0.00  0.00    +0.227 C 
ATOM     25  O   ALA A   7      81.733  40.607  33.638  0.00  0.00    -0.286 OA
ENDBRANCH  22  24
ENDBRANCH  19  22
ENDBRANCH  17  18
BRANCH  17  26
ATOM     26  CB  SER A   6      77.700  36.189  35.905  0.00  0.00    +0.166 C 
BRANCH  26  27
ATOM     27  OG  SER A   6      77.160  36.933  36.992  0.00  0.00    -0.380 OA
ATOM     28  H   SER A   6      77.614  36.667  37.830  0.00  0.00    +0.211 HD
ENDBRANCH  26  27
ENDBRANCH  17  26
ENDBRANCH  14  17
ENDBRANCH  11  13
ENDBRANCH   8  11
ENDBRANCH   5   7
ENDBRANCH   2   5
BRANCH   1  29
ATOM     29  CA  SER A   3      76.826  38.271  39.952  0.00  0.00    +0.178 C 
BRANCH  29  31
ATOM     30  C   ASP A   2      77.008  35.970  40.555  0.00  0.00    +0.241 C 
ATOM     31  N   SER A   3      76.735  37.205  40.975  0.00  0.00    -0.295 N 
ATOM     32  H   SER A   3      76.474  37.407  41.961  0.00  0.00    +0.150 HD
ATOM     33  O   ASP A   2      77.339  35.793  39.371  0.00  0.00    -0.273 OA
BRANCH  30  34
ATOM     34  CA  ASP A   2      76.889  34.821  41.543  0.00  0.00    +0.160 C 
BRANCH  34  36
ATOM     35  C   THR A   1      76.400  32.704  40.397  0.00  0.00    +0.241 C 
ATOM     36  N   ASP A   2      77.280  33.588  40.872  0.00  0.00    -0.297 N 
ATOM     37  H   ASP A   2      78.294  33.387  40.758  0.00  0.00    +0.150 HD
ATOM     38  O   THR A   1      75.194  32.791  40.551  0.00  0.00    -0.274 OA
BRANCH  35  39
ATOM     39  CA  THR A   1      77.007  31.617  39.515  0.00  0.00    +0.172 C 
BRANCH  39  40
ATOM     40  CB  THR A   1      77.271  32.307  38.125  0.00  0.00    +0.135 C 
ATOM     41  CG2 THR A   1      75.980  33.022  37.684  0.00  0.00    +0.034 C 
BRANCH  40  42
ATOM     42  OG1 THR A   1      78.247  33.326  38.356  0.00  0.00    -0.383 OA
ATOM     43  HG1 THR A   1      77.894  33.977  39.013  0.00  0.00    +0.210 HD
ENDBRANCH  40  42
ENDBRANCH  39  40
BRANCH  39  44
ATOM     44  N   THR A   1      76.166  30.463  39.336  0.00  0.00    -0.236 NA
ATOM     45  H   THR A   1      75.608  30.390  38.461  0.00  0.00    +0.142 HD
ENDBRANCH  39  44
ENDBRANCH  35  39
ENDBRANCH  34  36
BRANCH  34  46
ATOM     46  CB  ASP A   2      77.641  35.093  42.819  0.00  0.00    +0.143 C 
BRANCH  46  47
ATOM     47  CG  ASP A   2      78.959  35.817  42.665  0.00  0.00    +0.367 C 
ATOM     48  OD2 ASP A   2      79.401  36.488  43.622  0.00  0.00    -0.246 OA
ATOM     49  OD1 ASP A   2      79.582  35.743  41.577  0.00  0.00    -0.246 OA
ENDBRANCH  46  47
ENDBRANCH  34  46
ENDBRANCH  30  34
ENDBRANCH  29  31
BRANCH  29  50
ATOM     50  CB  SER A   3      76.112  39.523  40.495  0.00  0.00    +0.166 C 
BRANCH  50  51
ATOM     51  OG  SER A   3      76.961  40.096  41.502  0.00  0.00    -0.380 OA
ATOM     52  H   SER A   3      76.530  40.906  41.873  0.00  0.00    +0.211 HD
ENDBRANCH  50  51
ENDBRANCH  29  50
ENDBRANCH   1  29
TORSDOF 22
REMARK  Name = ../refined-set-2016/1ew8/1ew8_pocket.pdb
REMARK  125 active torsions:
REMARK  status: ('A' for Active; 'I' for Inactive)
REMARK    1  A    between atoms: _1  and  _3
REMARK    2  A    between atoms: _3  and  _4
REMARK    3  A    between atoms: _3  and  _6
REMARK    4  A    between atoms: _6  and  _7
REMARK    5  A    between atoms: _7  and  _8
REMARK    6  A    between atoms: _8  and  ZN_301
REMARK    7  A    between atoms: _10  and  _12
REMARK    8  A    between atoms: _12  and  _13
REMARK    9  A    between atoms: _15  and  _17
REMARK   10  A    between atoms: _17  and  _18
REMARK   11  A    between atoms: _17  and  _20
REMARK   12  A    between atoms: _20  and  _21
REMARK   13  A    between atoms: _21  and  _22
REMARK   14  A    between atoms: _24  and  _26
REMARK   15  A    between atoms: _26  and  _27
REMARK   16  A    between atoms: _26  and  _29
REMARK   17  A    between atoms: _29  and  _30
REMARK   18  A    between atoms: _33  and  _35
REMARK   19  A    between atoms: _35  and  _36
REMARK   20  A    between atoms: _35  and  _38
REMARK   21  A    between atoms: _38  and  _39
REMARK   22  A    between atoms: _42  and  _44
REMARK   23  A    between atoms: _44  and  _45
REMARK   24  A    between atoms: _44  and  _47
REMARK   25  A    between atoms: _47  and  _48
REMARK   26  A    between atoms: _50  and  _52
REMARK   27  A    between atoms: _52  and  _53
REMARK   28  A    between atoms: _56  and  _58
REMARK   29  A    between atoms: _58  and  _59
REMARK   30  A    between atoms: _62  and  _64
REMARK   31  A    between atoms: _64  and  _65
REMARK   32  A    between atoms: _64  and  _67
REMARK   33  A    between atoms: _67  and  _68
REMARK   34  A    between atoms: _70  and  _72
REMARK   35  A    between atoms: _72  and  _73
REMARK   36  A    between atoms: _76  and  _78
REMARK   37  A    between atoms: _78  and  _79
REMARK   38  A    between atoms: _78  and  _81
REMARK   39  A    between atoms: _81  and  _82
REMARK   40  A    between atoms: _87  and  _89
REMARK   41  A    between atoms: _89  and  _90
REMARK   42  A    between atoms: _92  and  _94
REMARK   43  A    between atoms: _94  and  _95
REMARK   44  A    between atoms: _98  and  _100
REMARK   45  A    between atoms: _100  and  _101
REMARK   46  A    between atoms: _100  and  _103
REMARK   47  A    between atoms: _103  and  _104
REMARK   48  A    between atoms: _109  and  _110
REMARK   49  A    between atoms: _113  and  _115
REMARK   50  A    between atoms: _115  and  _116
REMARK   51  A    between atoms: _115  and  _118
REMARK   52  A    between atoms: _118  and  _119
REMARK   53  A    between atoms: _123  and  _124
REMARK   54  A    between atoms: _129  and  _131
REMARK   55  A    between atoms: _131  and  _132
REMARK   56  A    between atoms: _131  and  _134
REMARK   57  A    between atoms: _134  and  _135
REMARK   58  A    between atoms: _135  and  _136
REMARK   59  A    between atoms: _136  and  _137
REMARK   60  A    between atoms: _146  and  _148
REMARK   61  A    between atoms: _148  and  _149
REMARK   62  A    between atoms: _148  and  _151
REMARK   63  A    between atoms: _151  and  _152
REMARK   64  A    between atoms: _152  and  _153
REMARK   65  A    between atoms: _153  and  _154
REMARK   66  A    between atoms: _154  and  _155
REMARK   67  A    between atoms: _159  and  _161
REMARK   68  A    between atoms: _161  and  _162
REMARK   69  A    between atoms: _161  and  _164
REMARK   70  A    between atoms: _164  and  _165
REMARK   71  A    between atoms: _170  and  _171
REMARK   72  A    between atoms: _173  and  _175
REMARK   73  A    between atoms: _175  and  _176
REMARK   74  A    between atoms: _175  and  _178
REMARK   75  A    between atoms: _178  and  _179
REMARK   76  A    between atoms: _179  and  _180
REMARK   77  A    between atoms: _180  and  _182
REMARK   78  A    between atoms: _182  and  MG_302
REMARK   79  A    between atoms: _183  and  _185
REMARK   80  A    between atoms: _185  and  _186
REMARK   81  A    between atoms: _189  and  _191
REMARK   82  A    between atoms: _191  and  _192
REMARK   83  A    between atoms: _191  and  _194
REMARK   84  A    between atoms: _194  and  _195
REMARK   85  A    between atoms: _195  and  _196
REMARK   86  A    between atoms: _196  and  ZN_300
REMARK   87  A    between atoms: _198  and  _200
REMARK   88  A    between atoms: _200  and  _201
REMARK   89  A    between atoms: _200  and  _203
REMARK   90  A    between atoms: _203  and  _204
REMARK   91  A    between atoms: _204  and  _205
REMARK   92  A    between atoms: _205  and  _206
REMARK   93  A    between atoms: _206  and  _207
REMARK   94  A    between atoms: _211  and  _213
REMARK   95  A    between atoms: _213  and  _214
REMARK   96  A    between atoms: _213  and  _216
REMARK   97  A    between atoms: _216  and  _217
REMARK   98  A    between atoms: _221  and  ZN_300
REMARK   99  A    between atoms: _222  and  _224
REMARK  100  A    between atoms: _233  and  _234
REMARK  101  A    between atoms: _242  and  _244
REMARK  102  A    between atoms: _244  and  _245
REMARK  103  A    between atoms: _248  and  _250
REMARK  104  A    between atoms: _250  and  _251
REMARK  105  A    between atoms: _250  and  _253
REMARK  106  A    between atoms: _253  and  _254
REMARK  107  A    between atoms: _259  and  _261
REMARK  108  A    between atoms: _261  and  _262
REMARK  109  A    between atoms: _261  and  _264
REMARK  110  A    between atoms: _264  and  _265
REMARK  111  A    between atoms: _267  and  _269
REMARK  112  A    between atoms: _269  and  _270
REMARK  113  A    between atoms: _269  and  _272
REMARK  114  A    between atoms: _272  and  _273
REMARK  115  A    between atoms: _273  and  _274
REMARK  116  A    between atoms: _279  and  _281
REMARK  117  A    between atoms: _281  and  _282
REMARK  118  A    between atoms: _281  and  _284
REMARK  119  A    between atoms: _284  and  _285
REMARK  120  A    between atoms: _285  and  _286
REMARK  121  A    between atoms: _289  and  _291
REMARK  122  A    between atoms: _291  and  _292
REMARK  123  A    between atoms: _291  and  _294
REMARK  124  A    between atoms: _294  and  _295
REMARK  125  A    between atoms: _299  and  ZN_300
REMARK                            x       y       z     vdW  Elec       q    Type
REMARK                         _______ _______ _______ _____ _____    ______ ____
ROOT
ATOM      1  CA  ASN A   1      81.900  33.181  42.595  0.00  0.00    +0.154 C 
ENDROOT
BRANCH   1   2
ATOM      2  C   ASN A   1      82.618  34.102  43.597  0.00  0.00    +0.239 C 
ATOM      3  O   ASN A   1      83.447  33.628  44.374  0.00  0.00    -0.274 OA
ATOM      4  N   GLY A   2      82.318  35.391  43.550  0.00  0.00    -0.297 N 
ATOM      5  H   GLY A   2      81.608  35.708  42.860  0.00  0.00    +0.150 HD
BRANCH   4   6
ATOM      6  CA  GLY A   2      82.930  36.381  44.412  0.00  0.00    +0.163 C 
BRANCH   6   7
ATOM      7  C   GLY A   2      84.019  37.199  43.772  0.00  0.00    +0.229 C 
ATOM      8  O   GLY A   2      84.297  38.321  44.233  0.00  0.00    -0.286 OA
ENDBRANCH   6   7
ENDBRANCH   4   6
ENDBRANCH   1   2
BRANCH   1   9
ATOM      9  N   ASN A   1      82.919  32.245  42.037  0.00  0.00    -0.238 NA
ATOM     10  H   ASN A   1      82.812  31.215  42.137  0.00  0.00    +0.142 HD
ENDBRANCH   1   9
BRANCH   1  11
ATOM     11  CB  ASN A   1      80.847  32.358  43.345  0.00  0.00    +0.111 C 
BRANCH  11  12
ATOM     12  CG  ASN A   1      79.898  31.611  42.443  0.00  0.00    +0.221 C 
ATOM     13  ND2 ASN A   1      79.238  30.587  42.993  0.00  0.00    -0.329 N 
ATOM     14 HD21 ASN A   1      79.395  30.343  43.992  0.00  0.00    +0.145 HD
ATOM     15 HD22 ASN A   1      78.567  30.034  42.422  0.00  0.00    +0.145 HD
ATOM     16  OD1 ASN A   1      79.723  31.911  41.265  0.00  0.00    -0.275 OA
ENDBRANCH  11  12
ENDBRANCH   1  11
TORSDOF 6
REMARK  Name = ../refined-set-2016/1ew8/1ew8_pocket.pdb
REMARK  125 active torsions:
REMARK  status: ('A' for Active; 'I' for Inactive)
REMARK    1  A    between atoms: _1  and  _3
REMARK    2  A    between atoms: _3  and  _4
REMARK    3  A    between atoms: _3  and  _6
REMARK    4  A    between atoms: _6  and  _7
REMARK    5  A    between atoms: _7  and  _8
REMARK    6  A    between atoms: _8  and  ZN_301
REMARK    7  A    between atoms: _10  and  _12
REMARK    8  A    between atoms: _12  and  _13
REMARK    9  A    between atoms: _15  and  _17
REMARK   10  A    between atoms: _17  and  _18
REMARK   11  A    between atoms: _17  and  _20
REMARK   12  A    between atoms: _20  and  _21
REMARK   13  A    between atoms: _21  and  _22
REMARK   14  A    between atoms: _24  and  _26
REMARK   15  A    between atoms: _26  and  _27
REMARK   16  A    between atoms: _26  and  _29
REMARK   17  A    between atoms: _29  and  _30
REMARK   18  A    between atoms: _33  and  _35
REMARK   19  A    between atoms: _35  and  _36
REMARK   20  A    between atoms: _35  and  _38
REMARK   21  A    between atoms: _38  and  _39
REMARK   22  A    between atoms: _42  and  _44
REMARK   23  A    between atoms: _44  and  _45
REMARK   24  A    between atoms: _44  and  _47
REMARK   25  A    between atoms: _47  and  _48
REMARK   26  A    between atoms: _50  and  _52
REMARK   27  A    between atoms: _52  and  _53
REMARK   28  A    between atoms: _56  and  _58
REMARK   29  A    between atoms: _58  and  _59
REMARK   30  A    between atoms: _62  and  _64
REMARK   31  A    between atoms: _64  and  _65
REMARK   32  A    between atoms: _64  and  _67
REMARK   33  A    between atoms: _67  and  _68
REMARK   34  A    between atoms: _70  and  _72
REMARK   35  A    between atoms: _72  and  _73
REMARK   36  A    between atoms: _76  and  _78
REMARK   37  A    between atoms: _78  and  _79
REMARK   38  A    between atoms: _78  and  _81
REMARK   39  A    between atoms: _81  and  _82
REMARK   40  A    between atoms: _87  and  _89
REMARK   41  A    between atoms: _89  and  _90
REMARK   42  A    between atoms: _92  and  _94
REMARK   43  A    between atoms: _94  and  _95
REMARK   44  A    between atoms: _98  and  _100
REMARK   45  A    between atoms: _100  and  _101
REMARK   46  A    between atoms: _100  and  _103
REMARK   47  A    between atoms: _103  and  _104
REMARK   48  A    between atoms: _109  and  _110
REMARK   49  A    between atoms: _113  and  _115
REMARK   50  A    between atoms: _115  and  _116
REMARK   51  A    between atoms: _115  and  _118
REMARK   52  A    between atoms: _118  and  _119
REMARK   53  A    between atoms: _123  and  _124
REMARK   54  A    between atoms: _129  and  _131
REMARK   55  A    between atoms: _131  and  _132
REMARK   56  A    between atoms: _131  and  _134
REMARK   57  A    between atoms: _134  and  _135
REMARK   58  A    between atoms: _135  and  _136
REMARK   59  A    between atoms: _136  and  _137
REMARK   60  A    between atoms: _146  and  _148
REMARK   61  A    between atoms: _148  and  _149
REMARK   62  A    between atoms: _148  and  _151
REMARK   63  A    between atoms: _151  and  _152
REMARK   64  A    between atoms: _152  and  _153
REMARK   65  A    between atoms: _153  and  _154
REMARK   66  A    between atoms: _154  and  _155
REMARK   67  A    between atoms: _159  and  _161
REMARK   68  A    between atoms: _161  and  _162
REMARK   69  A    between atoms: _161  and  _164
REMARK   70  A    between atoms: _164  and  _165
REMARK   71  A    between atoms: _170  and  _171
REMARK   72  A    between atoms: _173  and  _175
REMARK   73  A    between atoms: _175  and  _176
REMARK   74  A    between atoms: _175  and  _178
REMARK   75  A    between atoms: _178  and  _179
REMARK   76  A    between atoms: _179  and  _180
REMARK   77  A    between atoms: _180  and  _182
REMARK   78  A    between atoms: _182  and  MG_302
REMARK   79  A    between atoms: _183  and  _185
REMARK   80  A    between atoms: _185  and  _186
REMARK   81  A    between atoms: _189  and  _191
REMARK   82  A    between atoms: _191  and  _192
REMARK   83  A    between atoms: _191  and  _194
REMARK   84  A    between atoms: _194  and  _195
REMARK   85  A    between atoms: _195  and  _196
REMARK   86  A    between atoms: _196  and  ZN_300
REMARK   87  A    between atoms: _198  and  _200
REMARK   88  A    between atoms: _200  and  _201
REMARK   89  A    between atoms: _200  and  _203
REMARK   90  A    between atoms: _203  and  _204
REMARK   91  A    between atoms: _204  and  _205
REMARK   92  A    between atoms: _205  and  _206
REMARK   93  A    between atoms: _206  and  _207
REMARK   94  A    between atoms: _211  and  _213
REMARK   95  A    between atoms: _213  and  _214
REMARK   96  A    between atoms: _213  and  _216
REMARK   97  A    between atoms: _216  and  _217
REMARK   98  A    between atoms: _221  and  ZN_300
REMARK   99  A    between atoms: _222  and  _224
REMARK  100  A    between atoms: _233  and  _234
REMARK  101  A    between atoms: _242  and  _244
REMARK  102  A    between atoms: _244  and  _245
REMARK  103  A    between atoms: _248  and  _250
REMARK  104  A    between atoms: _250  and  _251
REMARK  105  A    between atoms: _250  and  _253
REMARK  106  A    between atoms: _253  and  _254
REMARK  107  A    between atoms: _259  and  _261
REMARK  108  A    between atoms: _261  and  _262
REMARK  109  A    between atoms: _261  and  _264
REMARK  110  A    between atoms: _264  and  _265
REMARK  111  A    between atoms: _267  and  _269
REMARK  112  A    between atoms: _269  and  _270
REMARK  113  A    between atoms: _269  and  _272
REMARK  114  A    between atoms: _272  and  _273
REMARK  115  A    between atoms: _273  and  _274
REMARK  116  A    between atoms: _279  and  _281
REMARK  117  A    between atoms: _281  and  _282
REMARK  118  A    between atoms: _281  and  _284
REMARK  119  A    between atoms: _284  and  _285
REMARK  120  A    between atoms: _285  and  _286
REMARK  121  A    between atoms: _289  and  _291
REMARK  122  A    between atoms: _291  and  _292
REMARK  123  A    between atoms: _291  and  _294
REMARK  124  A    between atoms: _294  and  _295
REMARK  125  A    between atoms: _299  and  ZN_300
REMARK                            x       y       z     vdW  Elec       q    Type
REMARK                         _______ _______ _______ _____ _____    ______ ____
ROOT
ATOM      1  CA  ALA A   1      72.414  49.468  42.757  0.00  0.00    +0.133 C 
ATOM      2  CB  ALA A   1      73.063  48.076  42.500  0.00  0.00    +0.027 C 
ENDROOT
BRANCH   1   3
ATOM      3  N   ALA A   1      71.884  49.943  41.456  0.00  0.00    -0.239 NA
ATOM      4  H   ALA A   1      72.328  49.633  40.568  0.00  0.00    +0.142 HD
ENDBRANCH   1   3
BRANCH   1   5
ATOM      5  C   ALA A   1      73.585  50.366  43.189  0.00  0.00    +0.224 C 
ATOM      6  O   ALA A   1      74.004  51.252  42.480  0.00  0.00    -0.287 OA
ENDBRANCH   1   5
TORSDOF 2
REMARK  Name = ../refined-set-2016/1ew8/1ew8_pocket.pdb
REMARK  125 active torsions:
REMARK  status: ('A' for Active; 'I' for Inactive)
REMARK    1  A    between atoms: _1  and  _3
REMARK    2  A    between atoms: _3  and  _4
REMARK    3  A    between atoms: _3  and  _6
REMARK    4  A    between atoms: _6  and  _7
REMARK    5  A    between atoms: _7  and  _8
REMARK    6  A    between atoms: _8  and  ZN_301
REMARK    7  A    between atoms: _10  and  _12
REMARK    8  A    between atoms: _12  and  _13
REMARK    9  A    between atoms: _15  and  _17
REMARK   10  A    between atoms: _17  and  _18
REMARK   11  A    between atoms: _17  and  _20
REMARK   12  A    between atoms: _20  and  _21
REMARK   13  A    between atoms: _21  and  _22
REMARK   14  A    between atoms: _24  and  _26
REMARK   15  A    between atoms: _26  and  _27
REMARK   16  A    between atoms: _26  and  _29
REMARK   17  A    between atoms: _29  and  _30
REMARK   18  A    between atoms: _33  and  _35
REMARK   19  A    between atoms: _35  and  _36
REMARK   20  A    between atoms: _35  and  _38
REMARK   21  A    between atoms: _38  and  _39
REMARK   22  A    between atoms: _42  and  _44
REMARK   23  A    between atoms: _44  and  _45
REMARK   24  A    between atoms: _44  and  _47
REMARK   25  A    between atoms: _47  and  _48
REMARK   26  A    between atoms: _50  and  _52
REMARK   27  A    between atoms: _52  and  _53
REMARK   28  A    between atoms: _56  and  _58
REMARK   29  A    between atoms: _58  and  _59
REMARK   30  A    between atoms: _62  and  _64
REMARK   31  A    between atoms: _64  and  _65
REMARK   32  A    between atoms: _64  and  _67
REMARK   33  A    between atoms: _67  and  _68
REMARK   34  A    between atoms: _70  and  _72
REMARK   35  A    between atoms: _72  and  _73
REMARK   36  A    between atoms: _76  and  _78
REMARK   37  A    between atoms: _78  and  _79
REMARK   38  A    between atoms: _78  and  _81
REMARK   39  A    between atoms: _81  and  _82
REMARK   40  A    between atoms: _87  and  _89
REMARK   41  A    between atoms: _89  and  _90
REMARK   42  A    between atoms: _92  and  _94
REMARK   43  A    between atoms: _94  and  _95
REMARK   44  A    between atoms: _98  and  _100
REMARK   45  A    between atoms: _100  and  _101
REMARK   46  A    between atoms: _100  and  _103
REMARK   47  A    between atoms: _103  and  _104
REMARK   48  A    between atoms: _109  and  _110
REMARK   49  A    between atoms: _113  and  _115
REMARK   50  A    between atoms: _115  and  _116
REMARK   51  A    between atoms: _115  and  _118
REMARK   52  A    between atoms: _118  and  _119
REMARK   53  A    between atoms: _123  and  _124
REMARK   54  A    between atoms: _129  and  _131
REMARK   55  A    between atoms: _131  and  _132
REMARK   56  A    between atoms: _131  and  _134
REMARK   57  A    between atoms: _134  and  _135
REMARK   58  A    between atoms: _135  and  _136
REMARK   59  A    between atoms: _136  and  _137
REMARK   60  A    between atoms: _146  and  _148
REMARK   61  A    between atoms: _148  and  _149
REMARK   62  A    between atoms: _148  and  _151
REMARK   63  A    between atoms: _151  and  _152
REMARK   64  A    between atoms: _152  and  _153
REMARK   65  A    between atoms: _153  and  _154
REMARK   66  A    between atoms: _154  and  _155
REMARK   67  A    between atoms: _159  and  _161
REMARK   68  A    between atoms: _161  and  _162
REMARK   69  A    between atoms: _161  and  _164
REMARK   70  A    between atoms: _164  and  _165
REMARK   71  A    between atoms: _170  and  _171
REMARK   72  A    between atoms: _173  and  _175
REMARK   73  A    between atoms: _175  and  _176
REMARK   74  A    between atoms: _175  and  _178
REMARK   75  A    between atoms: _178  and  _179
REMARK   76  A    between atoms: _179  and  _180
REMARK   77  A    between atoms: _180  and  _182
REMARK   78  A    between atoms: _182  and  MG_302
REMARK   79  A    between atoms: _183  and  _185
REMARK   80  A    between atoms: _185  and  _186
REMARK   81  A    between atoms: _189  and  _191
REMARK   82  A    between atoms: _191  and  _192
REMARK   83  A    between atoms: _191  and  _194
REMARK   84  A    between atoms: _194  and  _195
REMARK   85  A    between atoms: _195  and  _196
REMARK   86  A    between atoms: _196  and  ZN_300
REMARK   87  A    between atoms: _198  and  _200
REMARK   88  A    between atoms: _200  and  _201
REMARK   89  A    between atoms: _200  and  _203
REMARK   90  A    between atoms: _203  and  _204
REMARK   91  A    between atoms: _204  and  _205
REMARK   92  A    between atoms: _205  and  _206
REMARK   93  A    between atoms: _206  and  _207
REMARK   94  A    between atoms: _211  and  _213
REMARK   95  A    between atoms: _213  and  _214
REMARK   96  A    between atoms: _213  and  _216
REMARK   97  A    between atoms: _216  and  _217
REMARK   98  A    between atoms: _221  and  ZN_300
REMARK   99  A    between atoms: _222  and  _224
REMARK  100  A    between atoms: _233  and  _234
REMARK  101  A    between atoms: _242  and  _244
REMARK  102  A    between atoms: _244  and  _245
REMARK  103  A    between atoms: _248  and  _250
REMARK  104  A    between atoms: _250  and  _251
REMARK  105  A    between atoms: _250  and  _253
REMARK  106  A    between atoms: _253  and  _254
REMARK  107  A    between atoms: _259  and  _261
REMARK  108  A    between atoms: _261  and  _262
REMARK  109  A    between atoms: _261  and  _264
REMARK  110  A    between atoms: _264  and  _265
REMARK  111  A    between atoms: _267  and  _269
REMARK  112  A    between atoms: _269  and  _270
REMARK  113  A    between atoms: _269  and  _272
REMARK  114  A    between atoms: _272  and  _273
REMARK  115  A    between atoms: _273  and  _274
REMARK  116  A    between atoms: _279  and  _281
REMARK  117  A    between atoms: _281  and  _282
REMARK  118  A    between atoms: _281  and  _284
REMARK  119  A    between atoms: _284  and  _285
REMARK  120  A    between atoms: _285  and  _286
REMARK  121  A    between atoms: _289  and  _291
REMARK  122  A    between atoms: _291  and  _292
REMARK  123  A    between atoms: _291  and  _294
REMARK  124  A    between atoms: _294  and  _295
REMARK  125  A    between atoms: _299  and  ZN_300
REMARK                            x       y       z     vdW  Elec       q    Type
REMARK                         _______ _______ _______ _____ _____    ______ ____
ROOT
ATOM      1  C   ALA A   2      79.127  43.701  40.025  0.00  0.00    +0.256 C 
ATOM      2  N   THR A   3      77.882  43.945  39.589  0.00  0.00    -0.292 N 
ATOM      3  H   THR A   3      77.084  43.903  40.255  0.00  0.00    +0.150 HD
ATOM      4  O   ALA A   2      80.083  43.753  39.219  0.00  0.00    -0.269 OA
ENDROOT
BRANCH   1   8
ATOM      5  C   ASP A   1      78.724  45.428  42.537  0.00  0.00    +0.242 C 
ATOM      6  N   ALA A   2      78.700  44.110  42.453  0.00  0.00    -0.283 N 
ATOM      7  H   ALA A   2      78.165  43.599  43.184  0.00  0.00    +0.155 HD
ATOM      8  CA  ALA A   2      79.339  43.326  41.454  0.00  0.00    +0.082 C 
ATOM      9  CB  ALA A   2      79.257  41.842  41.696  0.00  0.00    +0.052 C 
ATOM     10  O   ASP A   1      79.327  46.136  41.711  0.00  0.00    -0.273 OA
BRANCH   5  11
ATOM     11  CA  ASP A   1      78.035  46.097  43.716  0.00  0.00    +0.156 C 
BRANCH  11  12
ATOM     12  N   ASP A   1      78.593  47.481  43.854  0.00  0.00    -0.238 NA
ATOM     13  H   ASP A   1      78.023  48.314  43.602  0.00  0.00    +0.142 HD
ENDBRANCH  11  12
BRANCH  11  14
ATOM     14  CB  ASP A   1      76.543  46.192  43.555  0.00  0.00    +0.140 C 
BRANCH  14  15
ATOM     15  CG  ASP A   1      75.733  44.967  43.851  0.00  0.00    +0.367 C 
ATOM     16  OD2 ASP A   1      76.170  44.072  44.607  0.00  0.00    -0.246 OA
ATOM     17  OD1 ASP A   1      74.599  44.863  43.306  0.00  0.00    -0.246 OA
ENDBRANCH  14  15
ENDBRANCH  11  14
ENDBRANCH   5  11
ENDBRANCH   1   8
BRANCH   2  18
ATOM     18  CA  THR A   3      77.640  44.268  38.194  0.00  0.00    +0.176 C 
BRANCH  18  19
ATOM     19  C   THR A   3      78.398  45.429  37.651  0.00  0.00    +0.246 C 
ATOM     20  N   PRO A   4      78.228  46.637  38.216  0.00  0.00    -0.273 N 
ATOM     21  CD  PRO A   4      77.303  47.019  39.299  0.00  0.00    +0.094 C 
ATOM     22  CG  PRO A   4      77.806  48.395  39.691  0.00  0.00    +0.024 C 
ATOM     23  CB  PRO A   4      78.346  48.979  38.419  0.00  0.00    +0.030 C 
ATOM     24  CA  PRO A   4      78.985  47.781  37.703  0.00  0.00    +0.140 C 
ATOM     25  O   THR A   3      79.173  45.325  36.672  0.00  0.00    -0.273 OA
BRANCH  24  26
ATOM     26  C   PRO A   4      80.472  47.704  38.047  0.00  0.00    +0.227 C 
ATOM     27  O   PRO A   4      81.318  48.095  37.222  0.00  0.00    -0.286 OA
ENDBRANCH  24  26
ENDBRANCH  18  19
BRANCH  18  28
ATOM     28  CB  THR A   3      76.147  44.293  37.859  0.00  0.00    +0.137 C 
ATOM     29  CG2 THR A   3      75.918  44.133  36.363  0.00  0.00    +0.034 C 
BRANCH  28  30
ATOM     30  OG1 THR A   3      75.531  43.137  38.473  0.00  0.00    -0.382 OA
ATOM     31  HG1 THR A   3      74.562  43.133  38.269  0.00  0.00    +0.210 HD
ENDBRANCH  28  30
ENDBRANCH  18  28
ENDBRANCH   2  18
TORSDOF 10
REMARK  Name = ../refined-set-2016/1ew8/1ew8_pocket.pdb
REMARK  125 active torsions:
REMARK  status: ('A' for Active; 'I' for Inactive)
REMARK    1  A    between atoms: _1  and  _3
REMARK    2  A    between atoms: _3  and  _4
REMARK    3  A    between atoms: _3  and  _6
REMARK    4  A    between atoms: _6  and  _7
REMARK    5  A    between atoms: _7  and  _8
REMARK    6  A    between atoms: _8  and  ZN_301
REMARK    7  A    between atoms: _10  and  _12
REMARK    8  A    between atoms: _12  and  _13
REMARK    9  A    between atoms: _15  and  _17
REMARK   10  A    between atoms: _17  and  _18
REMARK   11  A    between atoms: _17  and  _20
REMARK   12  A    between atoms: _20  and  _21
REMARK   13  A    between atoms: _21  and  _22
REMARK   14  A    between atoms: _24  and  _26
REMARK   15  A    between atoms: _26  and  _27
REMARK   16  A    between atoms: _26  and  _29
REMARK   17  A    between atoms: _29  and  _30
REMARK   18  A    between atoms: _33  and  _35
REMARK   19  A    between atoms: _35  and  _36
REMARK   20  A    between atoms: _35  and  _38
REMARK   21  A    between atoms: _38  and  _39
REMARK   22  A    between atoms: _42  and  _44
REMARK   23  A    between atoms: _44  and  _45
REMARK   24  A    between atoms: _44  and  _47
REMARK   25  A    between atoms: _47  and  _48
REMARK   26  A    between atoms: _50  and  _52
REMARK   27  A    between atoms: _52  and  _53
REMARK   28  A    between atoms: _56  and  _58
REMARK   29  A    between atoms: _58  and  _59
REMARK   30  A    between atoms: _62  and  _64
REMARK   31  A    between atoms: _64  and  _65
REMARK   32  A    between atoms: _64  and  _67
REMARK   33  A    between atoms: _67  and  _68
REMARK   34  A    between atoms: _70  and  _72
REMARK   35  A    between atoms: _72  and  _73
REMARK   36  A    between atoms: _76  and  _78
REMARK   37  A    between atoms: _78  and  _79
REMARK   38  A    between atoms: _78  and  _81
REMARK   39  A    between atoms: _81  and  _82
REMARK   40  A    between atoms: _87  and  _89
REMARK   41  A    between atoms: _89  and  _90
REMARK   42  A    between atoms: _92  and  _94
REMARK   43  A    between atoms: _94  and  _95
REMARK   44  A    between atoms: _98  and  _100
REMARK   45  A    between atoms: _100  and  _101
REMARK   46  A    between atoms: _100  and  _103
REMARK   47  A    between atoms: _103  and  _104
REMARK   48  A    between atoms: _109  and  _110
REMARK   49  A    between atoms: _113  and  _115
REMARK   50  A    between atoms: _115  and  _116
REMARK   51  A    between atoms: _115  and  _118
REMARK   52  A    between atoms: _118  and  _119
REMARK   53  A    between atoms: _123  and  _124
REMARK   54  A    between atoms: _129  and  _131
REMARK   55  A    between atoms: _131  and  _132
REMARK   56  A    between atoms: _131  and  _134
REMARK   57  A    between atoms: _134  and  _135
REMARK   58  A    between atoms: _135  and  _136
REMARK   59  A    between atoms: _136  and  _137
REMARK   60  A    between atoms: _146  and  _148
REMARK   61  A    between atoms: _148  and  _149
REMARK   62  A    between atoms: _148  and  _151
REMARK   63  A    between atoms: _151  and  _152
REMARK   64  A    between atoms: _152  and  _153
REMARK   65  A    between atoms: _153  and  _154
REMARK   66  A    between atoms: _154  and  _155
REMARK   67  A    between atoms: _159  and  _161
REMARK   68  A    between atoms: _161  and  _162
REMARK   69  A    between atoms: _161  and  _164
REMARK   70  A    between atoms: _164  and  _165
REMARK   71  A    between atoms: _170  and  _171
REMARK   72  A    between atoms: _173  and  _175
REMARK   73  A    between atoms: _175  and  _176
REMARK   74  A    between atoms: _175  and  _178
REMARK   75  A    between atoms: _178  and  _179
REMARK   76  A    between atoms: _179  and  _180
REMARK   77  A    between atoms: _180  and  _182
REMARK   78  A    between atoms: _182  and  MG_302
REMARK   79  A    between atoms: _183  and  _185
REMARK   80  A    between atoms: _185  and  _186
REMARK   81  A    between atoms: _189  and  _191
REMARK   82  A    between atoms: _191  and  _192
REMARK   83  A    between atoms: _191  and  _194
REMARK   84  A    between atoms: _194  and  _195
REMARK   85  A    between atoms: _195  and  _196
REMARK   86  A    between atoms: _196  and  ZN_300
REMARK   87  A    between atoms: _198  and  _200
REMARK   88  A    between atoms: _200  and  _201
REMARK   89  A    between atoms: _200  and  _203
REMARK   90  A    between atoms: _203  and  _204
REMARK   91  A    between atoms: _204  and  _205
REMARK   92  A    between atoms: _205  and  _206
REMARK   93  A    between atoms: _206  and  _207
REMARK   94  A    between atoms: _211  and  _213
REMARK   95  A    between atoms: _213  and  _214
REMARK   96  A    between atoms: _213  and  _216
REMARK   97  A    between atoms: _216  and  _217
REMARK   98  A    between atoms: _221  and  ZN_300
REMARK   99  A    between atoms: _222  and  _224
REMARK  100  A    between atoms: _233  and  _234
REMARK  101  A    between atoms: _242  and  _244
REMARK  102  A    between atoms: _244  and  _245
REMARK  103  A    between atoms: _248  and  _250
REMARK  104  A    between atoms: _250  and  _251
REMARK  105  A    between atoms: _250  and  _253
REMARK  106  A    between atoms: _253  and  _254
REMARK  107  A    between atoms: _259  and  _261
REMARK  108  A    between atoms: _261  and  _262
REMARK  109  A    between atoms: _261  and  _264
REMARK  110  A    between atoms: _264  and  _265
REMARK  111  A    between atoms: _267  and  _269
REMARK  112  A    between atoms: _269  and  _270
REMARK  113  A    between atoms: _269  and  _272
REMARK  114  A    between atoms: _272  and  _273
REMARK  115  A    between atoms: _273  and  _274
REMARK  116  A    between atoms: _279  and  _281
REMARK  117  A    between atoms: _281  and  _282
REMARK  118  A    between atoms: _281  and  _284
REMARK  119  A    between atoms: _284  and  _285
REMARK  120  A    between atoms: _285  and  _286
REMARK  121  A    between atoms: _289  and  _291
REMARK  122  A    between atoms: _291  and  _292
REMARK  123  A    between atoms: _291  and  _294
REMARK  124  A    between atoms: _294  and  _295
REMARK  125  A    between atoms: _299  and  ZN_300
REMARK                            x       y       z     vdW  Elec       q    Type
REMARK                         _______ _______ _______ _____ _____    ______ ____
ROOT
ATOM      1  CA  ARG A   1      83.254  41.447  45.908  0.00  0.00    +0.145 C 
ENDROOT
BRANCH   1   2
ATOM      2  C   ARG A   1      82.889  42.343  47.090  0.00  0.00    +0.238 C 
ATOM      3  N   LYS A   2      83.171  41.844  48.273  0.00  0.00    -0.298 N 
ATOM      4  H   LYS A   2      83.607  40.900  48.288  0.00  0.00    +0.150 HD
ATOM      5  O   ARG A   1      82.373  43.450  46.885  0.00  0.00    -0.274 OA
BRANCH   3   6
ATOM      6  CA  LYS A   2      82.941  42.462  49.540  0.00  0.00    +0.137 C 
BRANCH   6   7
ATOM      7  C   LYS A   2      83.845  43.658  49.802  0.00  0.00    +0.227 C 
ATOM      8  O   LYS A   2      83.678  44.341  50.815  0.00  0.00    -0.286 OA
ENDBRANCH   6   7
BRANCH   6   9
ATOM      9  CB  LYS A   2      83.208  41.423  50.651  0.00  0.00    +0.028 C 
BRANCH   9  10
ATOM     10  CG  LYS A   2      82.402  40.144  50.458  0.00  0.00    -0.000 C 
BRANCH  10  11
ATOM     11  CD  LYS A   2      81.452  39.929  51.643  0.00  0.00    -0.024 C 
BRANCH  11  12
ATOM     12  CE  LYS A   2      81.537  38.482  52.144  0.00  0.00    -0.086 C 
BRANCH  12  13
ATOM     13  NZ  LYS A   2      80.163  37.927  52.416  0.00  0.00    +0.380 N 
ATOM     14  HZ1 LYS A   2      79.694  38.506  53.141  0.00  0.00    -0.089 HD
ATOM     15  HZ2 LYS A   2      80.247  36.947  52.754  0.00  0.00    -0.089 HD
ATOM     16  HZ3 LYS A   2      79.603  37.946  51.540  0.00  0.00    -0.089 HD
ENDBRANCH  12  13
ENDBRANCH  11  12
ENDBRANCH  10  11
ENDBRANCH   9  10
ENDBRANCH   6   9
ENDBRANCH   3   6
ENDBRANCH   1   2
BRANCH   1  17
ATOM     17  N   ARG A   1      84.263  40.490  46.237  0.00  0.00    -0.238 NA
ATOM     18  H   ARG A   1      83.982  39.489  46.243  0.00  0.00    +0.142 HD
ENDBRANCH   1  17
BRANCH   1  19
ATOM     19  CB  ARG A   1      81.993  40.791  45.340  0.00  0.00    +0.030 C 
BRANCH  19  20
ATOM     20  CG  ARG A   1      81.156  40.052  46.348  0.00  0.00    +0.045 C 
BRANCH  20  21
ATOM     21  CD  ARG A   1      79.954  39.375  45.730  0.00  0.00    +0.174 C 
BRANCH  21  22
ATOM     22  NE  ARG A   1      79.065  40.323  45.040  0.00  0.00    -0.265 N 
ATOM     23  HE  ARG A   1      79.383  41.305  44.917  0.00  0.00    +0.259 HD
ATOM     24  CZ  ARG A   1      77.870  39.975  44.567  0.00  0.00    +0.342 C 
ATOM     25  NH2 ARG A   1      76.918  40.886  44.444  0.00  0.00    -0.292 N 
ATOM     26 HH21 ARG A   1      77.104  41.872  44.717  0.00  0.00    +0.255 HD
ATOM     27 HH22 ARG A   1      75.984  40.616  44.075  0.00  0.00    +0.255 HD
ATOM     28  NH1 ARG A   1      77.622  38.709  44.226  0.00  0.00    -0.292 N 
ATOM     29 HH11 ARG A   1      78.364  37.988  44.329  0.00  0.00    +0.255 HD
ATOM     30 HH12 ARG A   1      76.687  38.444  43.857  0.00  0.00    +0.255 HD
ENDBRANCH  21  22
ENDBRANCH  20  21
ENDBRANCH  19  20
ENDBRANCH   1  19
TORSDOF 13
REMARK  Name = ../refined-set-2016/1ew8/1ew8_pocket.pdb
REMARK  125 active torsions:
REMARK  status: ('A' for Active; 'I' for Inactive)
REMARK    1  A    between atoms: _1  and  _3
REMARK    2  A    between atoms: _3  and  _4
REMARK    3  A    between atoms: _3  and  _6
REMARK    4  A    between atoms: _6  and  _7
REMARK    5  A    between atoms: _7  and  _8
REMARK    6  A    between atoms: _8  and  ZN_301
REMARK    7  A    between atoms: _10  and  _12
REMARK    8  A    between atoms: _12  and  _13
REMARK    9  A    between atoms: _15  and  _17
REMARK   10  A    between atoms: _17  and  _18
REMARK   11  A    between atoms: _17  and  _20
REMARK   12  A    between atoms: _20  and  _21
REMARK   13  A    between atoms: _21  and  _22
REMARK   14  A    between atoms: _24  and  _26
REMARK   15  A    between atoms: _26  and  _27
REMARK   16  A    between atoms: _26  and  _29
REMARK   17  A    between atoms: _29  and  _30
REMARK   18  A    between atoms: _33  and  _35
REMARK   19  A    between atoms: _35  and  _36
REMARK   20  A    between atoms: _35  and  _38
REMARK   21  A    between atoms: _38  and  _39
REMARK   22  A    between atoms: _42  and  _44
REMARK   23  A    between atoms: _44  and  _45
REMARK   24  A    between atoms: _44  and  _47
REMARK   25  A    between atoms: _47  and  _48
REMARK   26  A    between atoms: _50  and  _52
REMARK   27  A    between atoms: _52  and  _53
REMARK   28  A    between atoms: _56  and  _58
REMARK   29  A    between atoms: _58  and  _59
REMARK   30  A    between atoms: _62  and  _64
REMARK   31  A    between atoms: _64  and  _65
REMARK   32  A    between atoms: _64  and  _67
REMARK   33  A    between atoms: _67  and  _68
REMARK   34  A    between atoms: _70  and  _72
REMARK   35  A    between atoms: _72  and  _73
REMARK   36  A    between atoms: _76  and  _78
REMARK   37  A    between atoms: _78  and  _79
REMARK   38  A    between atoms: _78  and  _81
REMARK   39  A    between atoms: _81  and  _82
REMARK   40  A    between atoms: _87  and  _89
REMARK   41  A    between atoms: _89  and  _90
REMARK   42  A    between atoms: _92  and  _94
REMARK   43  A    between atoms: _94  and  _95
REMARK   44  A    between atoms: _98  and  _100
REMARK   45  A    between atoms: _100  and  _101
REMARK   46  A    between atoms: _100  and  _103
REMARK   47  A    between atoms: _103  and  _104
REMARK   48  A    between atoms: _109  and  _110
REMARK   49  A    between atoms: _113  and  _115
REMARK   50  A    between atoms: _115  and  _116
REMARK   51  A    between atoms: _115  and  _118
REMARK   52  A    between atoms: _118  and  _119
REMARK   53  A    between atoms: _123  and  _124
REMARK   54  A    between atoms: _129  and  _131
REMARK   55  A    between atoms: _131  and  _132
REMARK   56  A    between atoms: _131  and  _134
REMARK   57  A    between atoms: _134  and  _135
REMARK   58  A    between atoms: _135  and  _136
REMARK   59  A    between atoms: _136  and  _137
REMARK   60  A    between atoms: _146  and  _148
REMARK   61  A    between atoms: _148  and  _149
REMARK   62  A    between atoms: _148  and  _151
REMARK   63  A    between atoms: _151  and  _152
REMARK   64  A    between atoms: _152  and  _153
REMARK   65  A    between atoms: _153  and  _154
REMARK   66  A    between atoms: _154  and  _155
REMARK   67  A    between atoms: _159  and  _161
REMARK   68  A    between atoms: _161  and  _162
REMARK   69  A    between atoms: _161  and  _164
REMARK   70  A    between atoms: _164  and  _165
REMARK   71  A    between atoms: _170  and  _171
REMARK   72  A    between atoms: _173  and  _175
REMARK   73  A    between atoms: _175  and  _176
REMARK   74  A    between atoms: _175  and  _178
REMARK   75  A    between atoms: _178  and  _179
REMARK   76  A    between atoms: _179  and  _180
REMARK   77  A    between atoms: _180  and  _182
REMARK   78  A    between atoms: _182  and  MG_302
REMARK   79  A    between atoms: _183  and  _185
REMARK   80  A    between atoms: _185  and  _186
REMARK   81  A    between atoms: _189  and  _191
REMARK   82  A    between atoms: _191  and  _192
REMARK   83  A    between atoms: _191  and  _194
REMARK   84  A    between atoms: _194  and  _195
REMARK   85  A    between atoms: _195  and  _196
REMARK   86  A    between atoms: _196  and  ZN_300
REMARK   87  A    between atoms: _198  and  _200
REMARK   88  A    between atoms: _200  and  _201
REMARK   89  A    between atoms: _200  and  _203
REMARK   90  A    between atoms: _203  and  _204
REMARK   91  A    between atoms: _204  and  _205
REMARK   92  A    between atoms: _205  and  _206
REMARK   93  A    between atoms: _206  and  _207
REMARK   94  A    between atoms: _211  and  _213
REMARK   95  A    between atoms: _213  and  _214
REMARK   96  A    between atoms: _213  and  _216
REMARK   97  A    between atoms: _216  and  _217
REMARK   98  A    between atoms: _221  and  ZN_300
REMARK   99  A    between atoms: _222  and  _224
REMARK  100  A    between atoms: _233  and  _234
REMARK  101  A    between atoms: _242  and  _244
REMARK  102  A    between atoms: _244  and  _245
REMARK  103  A    between atoms: _248  and  _250
REMARK  104  A    between atoms: _250  and  _251
REMARK  105  A    between atoms: _250  and  _253
REMARK  106  A    between atoms: _253  and  _254
REMARK  107  A    between atoms: _259  and  _261
REMARK  108  A    between atoms: _261  and  _262
REMARK  109  A    between atoms: _261  and  _264
REMARK  110  A    between atoms: _264  and  _265
REMARK  111  A    between atoms: _267  and  _269
REMARK  112  A    between atoms: _269  and  _270
REMARK  113  A    between atoms: _269  and  _272
REMARK  114  A    between atoms: _272  and  _273
REMARK  115  A    between atoms: _273  and  _274
REMARK  116  A    between atoms: _279  and  _281
REMARK  117  A    between atoms: _281  and  _282
REMARK  118  A    between atoms: _281  and  _284
REMARK  119  A    between atoms: _284  and  _285
REMARK  120  A    between atoms: _285  and  _286
REMARK  121  A    between atoms: _289  and  _291
REMARK  122  A    between atoms: _291  and  _292
REMARK  123  A    between atoms: _291  and  _294
REMARK  124  A    between atoms: _294  and  _295
REMARK  125  A    between atoms: _299  and  ZN_300
REMARK                            x       y       z     vdW  Elec       q    Type
REMARK                         _______ _______ _______ _____ _____    ______ ____
ROOT
ATOM      1  CG  TYR A   1      81.344  47.628  49.061  0.00  0.00    -0.020 A 
ATOM      2  CD2 TYR A   1      80.083  48.188  49.229  0.00  0.00    -0.001 A 
ATOM      3  CE2 TYR A   1      78.964  47.558  48.745  0.00  0.00    +0.036 A 
ATOM      4  CZ  TYR A   1      79.087  46.359  48.073  0.00  0.00    +0.134 A 
ATOM      5  CE1 TYR A   1      80.321  45.784  47.887  0.00  0.00    +0.036 A 
ATOM      6  CD1 TYR A   1      81.451  46.426  48.379  0.00  0.00    -0.001 A 
ENDROOT
BRANCH   4   7
ATOM      7  OH  TYR A   1      77.949  45.751  47.594  0.00  0.00    -0.506 OA
ATOM      8  HH  TYR A   1      78.194  44.907  47.139  0.00  0.00    +0.292 HD
ENDBRANCH   4   7
BRANCH   1   9
ATOM      9  CB  TYR A   1      82.561  48.334  49.597  0.00  0.00    +0.051 C 
BRANCH   9  10
ATOM     10  CA  TYR A   1      83.825  48.032  48.741  0.00  0.00    +0.137 C 
BRANCH  10  11
ATOM     11  N   TYR A   1      84.387  46.787  49.173  0.00  0.00    -0.239 NA
ATOM     12  H   TYR A   1      83.898  46.275  49.935  0.00  0.00    +0.142 HD
ENDBRANCH  10  11
BRANCH  10  13
ATOM     13  C   TYR A   1      84.743  49.224  48.849  0.00  0.00    +0.224 C 
ATOM     14  O   TYR A   1      84.921  50.016  47.922  0.00  0.00    -0.287 OA
ENDBRANCH  10  13
ENDBRANCH   9  10
ENDBRANCH   1   9
TORSDOF 5
REMARK  Name = ../refined-set-2016/1ew8/1ew8_pocket.pdb
REMARK  125 active torsions:
REMARK  status: ('A' for Active; 'I' for Inactive)
REMARK    1  A    between atoms: _1  and  _3
REMARK    2  A    between atoms: _3  and  _4
REMARK    3  A    between atoms: _3  and  _6
REMARK    4  A    between atoms: _6  and  _7
REMARK    5  A    between atoms: _7  and  _8
REMARK    6  A    between atoms: _8  and  ZN_301
REMARK    7  A    between atoms: _10  and  _12
REMARK    8  A    between atoms: _12  and  _13
REMARK    9  A    between atoms: _15  and  _17
REMARK   10  A    between atoms: _17  and  _18
REMARK   11  A    between atoms: _17  and  _20
REMARK   12  A    between atoms: _20  and  _21
REMARK   13  A    between atoms: _21  and  _22
REMARK   14  A    between atoms: _24  and  _26
REMARK   15  A    between atoms: _26  and  _27
REMARK   16  A    between atoms: _26  and  _29
REMARK   17  A    between atoms: _29  and  _30
REMARK   18  A    between atoms: _33  and  _35
REMARK   19  A    between atoms: _35  and  _36
REMARK   20  A    between atoms: _35  and  _38
REMARK   21  A    between atoms: _38  and  _39
REMARK   22  A    between atoms: _42  and  _44
REMARK   23  A    between atoms: _44  and  _45
REMARK   24  A    between atoms: _44  and  _47
REMARK   25  A    between atoms: _47  and  _48
REMARK   26  A    between atoms: _50  and  _52
REMARK   27  A    between atoms: _52  and  _53
REMARK   28  A    between atoms: _56  and  _58
REMARK   29  A    between atoms: _58  and  _59
REMARK   30  A    between atoms: _62  and  _64
REMARK   31  A    between atoms: _64  and  _65
REMARK   32  A    between atoms: _64  and  _67
REMARK   33  A    between atoms: _67  and  _68
REMARK   34  A    between atoms: _70  and  _72
REMARK   35  A    between atoms: _72  and  _73
REMARK   36  A    between atoms: _76  and  _78
REMARK   37  A    between atoms: _78  and  _79
REMARK   38  A    between atoms: _78  and  _81
REMARK   39  A    between atoms: _81  and  _82
REMARK   40  A    between atoms: _87  and  _89
REMARK   41  A    between atoms: _89  and  _90
REMARK   42  A    between atoms: _92  and  _94
REMARK   43  A    between atoms: _94  and  _95
REMARK   44  A    between atoms: _98  and  _100
REMARK   45  A    between atoms: _100  and  _101
REMARK   46  A    between atoms: _100  and  _103
REMARK   47  A    between atoms: _103  and  _104
REMARK   48  A    between atoms: _109  and  _110
REMARK   49  A    between atoms: _113  and  _115
REMARK   50  A    between atoms: _115  and  _116
REMARK   51  A    between atoms: _115  and  _118
REMARK   52  A    between atoms: _118  and  _119
REMARK   53  A    between atoms: _123  and  _124
REMARK   54  A    between atoms: _129  and  _131
REMARK   55  A    between atoms: _131  and  _132
REMARK   56  A    between atoms: _131  and  _134
REMARK   57  A    between atoms: _134  and  _135
REMARK   58  A    between atoms: _135  and  _136
REMARK   59  A    between atoms: _136  and  _137
REMARK   60  A    between atoms: _146  and  _148
REMARK   61  A    between atoms: _148  and  _149
REMARK   62  A    between atoms: _148  and  _151
REMARK   63  A    between atoms: _151  and  _152
REMARK   64  A    between atoms: _152  and  _153
REMARK   65  A    between atoms: _153  and  _154
REMARK   66  A    between atoms: _154  and  _155
REMARK   67  A    between atoms: _159  and  _161
REMARK   68  A    between atoms: _161  and  _162
REMARK   69  A    between atoms: _161  and  _164
REMARK   70  A    between atoms: _164  and  _165
REMARK   71  A    between atoms: _170  and  _171
REMARK   72  A    between atoms: _173  and  _175
REMARK   73  A    between atoms: _175  and  _176
REMARK   74  A    between atoms: _175  and  _178
REMARK   75  A    between atoms: _178  and  _179
REMARK   76  A    between atoms: _179  and  _180
REMARK   77  A    between atoms: _180  and  _182
REMARK   78  A    between atoms: _182  and  MG_302
REMARK   79  A    between atoms: _183  and  _185
REMARK   80  A    between atoms: _185  and  _186
REMARK   81  A    between atoms: _189  and  _191
REMARK   82  A    between atoms: _191  and  _192
REMARK   83  A    between atoms: _191  and  _194
REMARK   84  A    between atoms: _194  and  _195
REMARK   85  A    between atoms: _195  and  _196
REMARK   86  A    between atoms: _196  and  ZN_300
REMARK   87  A    between atoms: _198  and  _200
REMARK   88  A    between atoms: _200  and  _201
REMARK   89  A    between atoms: _200  and  _203
REMARK   90  A    between atoms: _203  and  _204
REMARK   91  A    between atoms: _204  and  _205
REMARK   92  A    between atoms: _205  and  _206
REMARK   93  A    between atoms: _206  and  _207
REMARK   94  A    between atoms: _211  and  _213
REMARK   95  A    between atoms: _213  and  _214
REMARK   96  A    between atoms: _213  and  _216
REMARK   97  A    between atoms: _216  and  _217
REMARK   98  A    between atoms: _221  and  ZN_300
REMARK   99  A    between atoms: _222  and  _224
REMARK  100  A    between atoms: _233  and  _234
REMARK  101  A    between atoms: _242  and  _244
REMARK  102  A    between atoms: _244  and  _245
REMARK  103  A    between atoms: _248  and  _250
REMARK  104  A    between atoms: _250  and  _251
REMARK  105  A    between atoms: _250  and  _253
REMARK  106  A    between atoms: _253  and  _254
REMARK  107  A    between atoms: _259  and  _261
REMARK  108  A    between atoms: _261  and  _262
REMARK  109  A    between atoms: _261  and  _264
REMARK  110  A    between atoms: _264  and  _265
REMARK  111  A    between atoms: _267  and  _269
REMARK  112  A    between atoms: _269  and  _270
REMARK  113  A    between atoms: _269  and  _272
REMARK  114  A    between atoms: _272  and  _273
REMARK  115  A    between atoms: _273  and  _274
REMARK  116  A    between atoms: _279  and  _281
REMARK  117  A    between atoms: _281  and  _282
REMARK  118  A    between atoms: _281  and  _284
REMARK  119  A    between atoms: _284  and  _285
REMARK  120  A    between atoms: _285  and  _286
REMARK  121  A    between atoms: _289  and  _291
REMARK  122  A    between atoms: _291  and  _292
REMARK  123  A    between atoms: _291  and  _294
REMARK  124  A    between atoms: _294  and  _295
REMARK  125  A    between atoms: _299  and  ZN_300
REMARK                            x       y       z     vdW  Elec       q    Type
REMARK                         _______ _______ _______ _____ _____    ______ ____
ROOT
ATOM      1  C   UNK     1      73.040  47.176  35.962  0.00  0.00    +0.000 C 
ENDROOT
BRANCH   1   2
ATOM      2  C   UNK     1      71.975  47.786  35.012  0.00  0.00    +0.000 C 
BRANCH   2   3
ATOM      3  N   UNK     1      72.473  48.854  34.220  0.00  0.00    +0.000 NA
ATOM      4  H   UNK     1      72.715  49.769  34.650  0.00  0.00    +0.000 HD
ENDBRANCH   2   3
BRANCH   2   5
ATOM      5  C   UNK     1      70.700  48.020  35.756  0.00  0.00    +0.000 C 
ATOM      6  O   UNK     1      70.609  48.788  36.722  0.00  0.00    +0.000 OA
ENDBRANCH   2   5
ENDBRANCH   1   2
BRANCH   1   7
ATOM      7  C   UNK     1      72.439  46.013  36.755  0.00  0.00    +0.000 C 
BRANCH   7   8
ATOM      8  C   UNK     1      73.108  45.738  38.071  0.00  0.00    +0.000 C 
ATOM      9  O   UNK     1      73.816  46.608  38.623  0.00  0.00    +0.000 OA
BRANCH   8  10
ATOM     10  O   UNK     1      72.931  44.593  38.568  0.00  0.00    +0.000 OA
BRANCH  10  11
ATOM     11 MG   UNK     1      73.605  43.474  40.011  0.00  0.00    +0.000 Mg
ATOM     12  O   UNK     1      74.596  45.091  40.696  0.00  0.00    +0.000 OA
ENDBRANCH  10  11
ENDBRANCH   8  10
ENDBRANCH   7   8
ENDBRANCH   1   7
TORSDOF 7
REMARK  Name = ../refined-set-2016/1ew8/1ew8_pocket.pdb
REMARK  125 active torsions:
REMARK  status: ('A' for Active; 'I' for Inactive)
REMARK    1  A    between atoms: _1  and  _3
REMARK    2  A    between atoms: _3  and  _4
REMARK    3  A    between atoms: _3  and  _6
REMARK    4  A    between atoms: _6  and  _7
REMARK    5  A    between atoms: _7  and  _8
REMARK    6  A    between atoms: _8  and  ZN_301
REMARK    7  A    between atoms: _10  and  _12
REMARK    8  A    between atoms: _12  and  _13
REMARK    9  A    between atoms: _15  and  _17
REMARK   10  A    between atoms: _17  and  _18
REMARK   11  A    between atoms: _17  and  _20
REMARK   12  A    between atoms: _20  and  _21
REMARK   13  A    between atoms: _21  and  _22
REMARK   14  A    between atoms: _24  and  _26
REMARK   15  A    between atoms: _26  and  _27
REMARK   16  A    between atoms: _26  and  _29
REMARK   17  A    between atoms: _29  and  _30
REMARK   18  A    between atoms: _33  and  _35
REMARK   19  A    between atoms: _35  and  _36
REMARK   20  A    between atoms: _35  and  _38
REMARK   21  A    between atoms: _38  and  _39
REMARK   22  A    between atoms: _42  and  _44
REMARK   23  A    between atoms: _44  and  _45
REMARK   24  A    between atoms: _44  and  _47
REMARK   25  A    between atoms: _47  and  _48
REMARK   26  A    between atoms: _50  and  _52
REMARK   27  A    between atoms: _52  and  _53
REMARK   28  A    between atoms: _56  and  _58
REMARK   29  A    between atoms: _58  and  _59
REMARK   30  A    between atoms: _62  and  _64
REMARK   31  A    between atoms: _64  and  _65
REMARK   32  A    between atoms: _64  and  _67
REMARK   33  A    between atoms: _67  and  _68
REMARK   34  A    between atoms: _70  and  _72
REMARK   35  A    between atoms: _72  and  _73
REMARK   36  A    between atoms: _76  and  _78
REMARK   37  A    between atoms: _78  and  _79
REMARK   38  A    between atoms: _78  and  _81
REMARK   39  A    between atoms: _81  and  _82
REMARK   40  A    between atoms: _87  and  _89
REMARK   41  A    between atoms: _89  and  _90
REMARK   42  A    between atoms: _92  and  _94
REMARK   43  A    between atoms: _94  and  _95
REMARK   44  A    between atoms: _98  and  _100
REMARK   45  A    between atoms: _100  and  _101
REMARK   46  A    between atoms: _100  and  _103
REMARK   47  A    between atoms: _103  and  _104
REMARK   48  A    between atoms: _109  and  _110
REMARK   49  A    between atoms: _113  and  _115
REMARK   50  A    between atoms: _115  and  _116
REMARK   51  A    between atoms: _115  and  _118
REMARK   52  A    between atoms: _118  and  _119
REMARK   53  A    between atoms: _123  and  _124
REMARK   54  A    between atoms: _129  and  _131
REMARK   55  A    between atoms: _131  and  _132
REMARK   56  A    between atoms: _131  and  _134
REMARK   57  A    between atoms: _134  and  _135
REMARK   58  A    between atoms: _135  and  _136
REMARK   59  A    between atoms: _136  and  _137
REMARK   60  A    between atoms: _146  and  _148
REMARK   61  A    between atoms: _148  and  _149
REMARK   62  A    between atoms: _148  and  _151
REMARK   63  A    between atoms: _151  and  _152
REMARK   64  A    between atoms: _152  and  _153
REMARK   65  A    between atoms: _153  and  _154
REMARK   66  A    between atoms: _154  and  _155
REMARK   67  A    between atoms: _159  and  _161
REMARK   68  A    between atoms: _161  and  _162
REMARK   69  A    between atoms: _161  and  _164
REMARK   70  A    between atoms: _164  and  _165
REMARK   71  A    between atoms: _170  and  _171
REMARK   72  A    between atoms: _173  and  _175
REMARK   73  A    between atoms: _175  and  _176
REMARK   74  A    between atoms: _175  and  _178
REMARK   75  A    between atoms: _178  and  _179
REMARK   76  A    between atoms: _179  and  _180
REMARK   77  A    between atoms: _180  and  _182
REMARK   78  A    between atoms: _182  and  MG_302
REMARK   79  A    between atoms: _183  and  _185
REMARK   80  A    between atoms: _185  and  _186
REMARK   81  A    between atoms: _189  and  _191
REMARK   82  A    between atoms: _191  and  _192
REMARK   83  A    between atoms: _191  and  _194
REMARK   84  A    between atoms: _194  and  _195
REMARK   85  A    between atoms: _195  and  _196
REMARK   86  A    between atoms: _196  and  ZN_300
REMARK   87  A    between atoms: _198  and  _200
REMARK   88  A    between atoms: _200  and  _201
REMARK   89  A    between atoms: _200  and  _203
REMARK   90  A    between atoms: _203  and  _204
REMARK   91  A    between atoms: _204  and  _205
REMARK   92  A    between atoms: _205  and  _206
REMARK   93  A    between atoms: _206  and  _207
REMARK   94  A    between atoms: _211  and  _213
REMARK   95  A    between atoms: _213  and  _214
REMARK   96  A    between atoms: _213  and  _216
REMARK   97  A    between atoms: _216  and  _217
REMARK   98  A    between atoms: _221  and  ZN_300
REMARK   99  A    between atoms: _222  and  _224
REMARK  100  A    between atoms: _233  and  _234
REMARK  101  A    between atoms: _242  and  _244
REMARK  102  A    between atoms: _244  and  _245
REMARK  103  A    between atoms: _248  and  _250
REMARK  104  A    between atoms: _250  and  _251
REMARK  105  A    between atoms: _250  and  _253
REMARK  106  A    between atoms: _253  and  _254
REMARK  107  A    between atoms: _259  and  _261
REMARK  108  A    between atoms: _261  and  _262
REMARK  109  A    between atoms: _261  and  _264
REMARK  110  A    between atoms: _264  and  _265
REMARK  111  A    between atoms: _267  and  _269
REMARK  112  A    between atoms: _269  and  _270
REMARK  113  A    between atoms: _269  and  _272
REMARK  114  A    between atoms: _272  and  _273
REMARK  115  A    between atoms: _273  and  _274
REMARK  116  A    between atoms: _279  and  _281
REMARK  117  A    between atoms: _281  and  _282
REMARK  118  A    between atoms: _281  and  _284
REMARK  119  A    between atoms: _284  and  _285
REMARK  120  A    between atoms: _285  and  _286
REMARK  121  A    between atoms: _289  and  _291
REMARK  122  A    between atoms: _291  and  _292
REMARK  123  A    between atoms: _291  and  _294
REMARK  124  A    between atoms: _294  and  _295
REMARK  125  A    between atoms: _299  and  ZN_300
REMARK                            x       y       z     vdW  Elec       q    Type
REMARK                         _______ _______ _______ _____ _____    ______ ____
ROOT
ATOM      1  CA  ALA A   1      69.887  46.009  39.609  0.00  0.00    +0.133 C 
ATOM      2  CB  ALA A   1      70.976  46.734  40.388  0.00  0.00    +0.027 C 
ENDROOT
BRANCH   1   3
ATOM      3  N   ALA A   1      69.412  46.749  38.502  0.00  0.00    -0.239 NA
ATOM      4  H   ALA A   1      69.549  47.780  38.522  0.00  0.00    +0.142 HD
ENDBRANCH   1   3
BRANCH   1   5
ATOM      5  C   ALA A   1      68.902  45.381  40.541  0.00  0.00    +0.224 C 
ATOM      6  O   ALA A   1      69.182  44.298  41.108  0.00  0.00    -0.287 OA
ENDBRANCH   1   5
TORSDOF 2
REMARK  Name = ../refined-set-2016/1ew8/1ew8_pocket.pdb
REMARK  125 active torsions:
REMARK  status: ('A' for Active; 'I' for Inactive)
REMARK    1  A    between atoms: _1  and  _3
REMARK    2  A    between atoms: _3  and  _4
REMARK    3  A    between atoms: _3  and  _6
REMARK    4  A    between atoms: _6  and  _7
REMARK    5  A    between atoms: _7  and  _8
REMARK    6  A    between atoms: _8  and  ZN_301
REMARK    7  A    between atoms: _10  and  _12
REMARK    8  A    between atoms: _12  and  _13
REMARK    9  A    between atoms: _15  and  _17
REMARK   10  A    between atoms: _17  and  _18
REMARK   11  A    between atoms: _17  and  _20
REMARK   12  A    between atoms: _20  and  _21
REMARK   13  A    between atoms: _21  and  _22
REMARK   14  A    between atoms: _24  and  _26
REMARK   15  A    between atoms: _26  and  _27
REMARK   16  A    between atoms: _26  and  _29
REMARK   17  A    between atoms: _29  and  _30
REMARK   18  A    between atoms: _33  and  _35
REMARK   19  A    between atoms: _35  and  _36
REMARK   20  A    between atoms: _35  and  _38
REMARK   21  A    between atoms: _38  and  _39
REMARK   22  A    between atoms: _42  and  _44
REMARK   23  A    between atoms: _44  and  _45
REMARK   24  A    between atoms: _44  and  _47
REMARK   25  A    between atoms: _47  and  _48
REMARK   26  A    between atoms: _50  and  _52
REMARK   27  A    between atoms: _52  and  _53
REMARK   28  A    between atoms: _56  and  _58
REMARK   29  A    between atoms: _58  and  _59
REMARK   30  A    between atoms: _62  and  _64
REMARK   31  A    between atoms: _64  and  _65
REMARK   32  A    between atoms: _64  and  _67
REMARK   33  A    between atoms: _67  and  _68
REMARK   34  A    between atoms: _70  and  _72
REMARK   35  A    between atoms: _72  and  _73
REMARK   36  A    between atoms: _76  and  _78
REMARK   37  A    between atoms: _78  and  _79
REMARK   38  A    between atoms: _78  and  _81
REMARK   39  A    between atoms: _81  and  _82
REMARK   40  A    between atoms: _87  and  _89
REMARK   41  A    between atoms: _89  and  _90
REMARK   42  A    between atoms: _92  and  _94
REMARK   43  A    between atoms: _94  and  _95
REMARK   44  A    between atoms: _98  and  _100
REMARK   45  A    between atoms: _100  and  _101
REMARK   46  A    between atoms: _100  and  _103
REMARK   47  A    between atoms: _103  and  _104
REMARK   48  A    between atoms: _109  and  _110
REMARK   49  A    between atoms: _113  and  _115
REMARK   50  A    between atoms: _115  and  _116
REMARK   51  A    between atoms: _115  and  _118
REMARK   52  A    between atoms: _118  and  _119
REMARK   53  A    between atoms: _123  and  _124
REMARK   54  A    between atoms: _129  and  _131
REMARK   55  A    between atoms: _131  and  _132
REMARK   56  A    between atoms: _131  and  _134
REMARK   57  A    between atoms: _134  and  _135
REMARK   58  A    between atoms: _135  and  _136
REMARK   59  A    between atoms: _136  and  _137
REMARK   60  A    between atoms: _146  and  _148
REMARK   61  A    between atoms: _148  and  _149
REMARK   62  A    between atoms: _148  and  _151
REMARK   63  A    between atoms: _151  and  _152
REMARK   64  A    between atoms: _152  and  _153
REMARK   65  A    between atoms: _153  and  _154
REMARK   66  A    between atoms: _154  and  _155
REMARK   67  A    between atoms: _159  and  _161
REMARK   68  A    between atoms: _161  and  _162
REMARK   69  A    between atoms: _161  and  _164
REMARK   70  A    between atoms: _164  and  _165
REMARK   71  A    between atoms: _170  and  _171
REMARK   72  A    between atoms: _173  and  _175
REMARK   73  A    between atoms: _175  and  _176
REMARK   74  A    between atoms: _175  and  _178
REMARK   75  A    between atoms: _178  and  _179
REMARK   76  A    between atoms: _179  and  _180
REMARK   77  A    between atoms: _180  and  _182
REMARK   78  A    between atoms: _182  and  MG_302
REMARK   79  A    between atoms: _183  and  _185
REMARK   80  A    between atoms: _185  and  _186
REMARK   81  A    between atoms: _189  and  _191
REMARK   82  A    between atoms: _191  and  _192
REMARK   83  A    between atoms: _191  and  _194
REMARK   84  A    between atoms: _194  and  _195
REMARK   85  A    between atoms: _195  and  _196
REMARK   86  A    between atoms: _196  and  ZN_300
REMARK   87  A    between atoms: _198  and  _200
REMARK   88  A    between atoms: _200  and  _201
REMARK   89  A    between atoms: _200  and  _203
REMARK   90  A    between atoms: _203  and  _204
REMARK   91  A    between atoms: _204  and  _205
REMARK   92  A    between atoms: _205  and  _206
REMARK   93  A    between atoms: _206  and  _207
REMARK   94  A    between atoms: _211  and  _213
REMARK   95  A    between atoms: _213  and  _214
REMARK   96  A    between atoms: _213  and  _216
REMARK   97  A    between atoms: _216  and  _217
REMARK   98  A    between atoms: _221  and  ZN_300
REMARK   99  A    between atoms: _222  and  _224
REMARK  100  A    between atoms: _233  and  _234
REMARK  101  A    between atoms: _242  and  _244
REMARK  102  A    between atoms: _244  and  _245
REMARK  103  A    between atoms: _248  and  _250
REMARK  104  A    between atoms: _250  and  _251
REMARK  105  A    between atoms: _250  and  _253
REMARK  106  A    between atoms: _253  and  _254
REMARK  107  A    between atoms: _259  and  _261
REMARK  108  A    between atoms: _261  and  _262
REMARK  109  A    between atoms: _261  and  _264
REMARK  110  A    between atoms: _264  and  _265
REMARK  111  A    between atoms: _267  and  _269
REMARK  112  A    between atoms: _269  and  _270
REMARK  113  A    between atoms: _269  and  _272
REMARK  114  A    between atoms: _272  and  _273
REMARK  115  A    between atoms: _273  and  _274
REMARK  116  A    between atoms: _279  and  _281
REMARK  117  A    between atoms: _281  and  _282
REMARK  118  A    between atoms: _281  and  _284
REMARK  119  A    between atoms: _284  and  _285
REMARK  120  A    between atoms: _285  and  _286
REMARK  121  A    between atoms: _289  and  _291
REMARK  122  A    between atoms: _291  and  _292
REMARK  123  A    between atoms: _291  and  _294
REMARK  124  A    between atoms: _294  and  _295
REMARK  125  A    between atoms: _299  and  ZN_300
REMARK                            x       y       z     vdW  Elec       q    Type
REMARK                         _______ _______ _______ _____ _____    ______ ____
ROOT
ATOM      1  N   UNK A   1      72.060  36.008  42.840  0.00  0.00    +0.000 N 
ATOM      2  C   UNK A   1      71.193  34.950  42.698  0.00  0.00    +0.000 A 
ATOM      3  C   UNK A   1      71.906  33.914  42.195  0.00  0.00    +0.000 A 
ATOM      4  N   UNK A   1      73.198  34.376  42.033  0.00  0.00    +0.000 NA
ATOM      5  C   UNK A   1      73.257  35.640  42.423  0.00  0.00    +0.000 A 
ENDROOT
BRANCH   3   6
ATOM      6  C   UNK A   1      71.503  32.528  41.824  0.00  0.00    +0.000 C 
BRANCH   6   7
ATOM      7  C   UNK A   1      70.034  32.185  42.135  0.00  0.00    +0.000 C 
BRANCH   7   8
ATOM      8  N   UNK A   1      69.869  32.074  43.596  0.00  0.00    +0.000 N 
ATOM      9  H   UNK A   1      70.702  32.143  44.215  0.00  0.00    +0.000 HD
ATOM     10  C   GLU A   3      68.655  31.885  44.134  0.00  0.00    +0.000 C 
ATOM     11  O   GLU A   3      67.629  31.855  43.465  0.00  0.00    +0.000 OA
BRANCH  10  12
ATOM     12  CA  GLU A   3      68.667  31.570  45.607  0.00  0.00    +0.000 C 
BRANCH  12  13
ATOM     13  N   GLU A   3      67.414  31.756  46.320  0.00  0.00    +0.000 N 
ATOM     14  C   GLN A   2      67.212  32.885  46.974  0.00  0.00    +0.000 C 
ATOM     15  O   GLN A   2      68.033  33.820  46.928  0.00  0.00    +0.000 OA
ATOM     16  H   GLU A   3      66.688  31.011  46.315  0.00  0.00    +0.000 HD
BRANCH  14  17
ATOM     17  CA  GLN A   2      66.013  32.995  47.905  0.00  0.00    +0.000 C 
BRANCH  17  18
ATOM     18  N   GLN A   2      66.342  34.074  48.874  0.00  0.00    +0.000 N 
ATOM     19  C   UNK A   1      66.997  33.745  49.997  0.00  0.00    +0.000 C 
ATOM     20  O   UNK A   1      67.280  32.573  50.264  0.00  0.00    +0.000 OA
ATOM     21  H   GLN A   2      66.071  35.060  48.685  0.00  0.00    +0.000 HD
BRANCH  19  22
ATOM     22  C   UNK A   1      67.383  34.908  50.891  0.00  0.00    +0.000 C 
BRANCH  22  23
ATOM     23  N   UNK A   1      67.115  34.674  52.284  0.00  0.00    +0.000 NA
ATOM     24  H   UNK A   1      67.788  34.070  52.797  0.00  0.00    +0.000 HD
ENDBRANCH  22  23
BRANCH  22  25
ATOM     25  C   UNK A   1      68.888  35.223  50.715  0.00  0.00    +0.000 C 
BRANCH  25  26
ATOM     26  O   UNK A   1      69.131  35.957  49.541  0.00  0.00    +0.000 OA
ATOM     27  H   UNK A   1      68.828  35.434  48.757  0.00  0.00    +0.000 HD
ENDBRANCH  25  26
ENDBRANCH  22  25
ENDBRANCH  19  22
ENDBRANCH  17  18
BRANCH  17  28
ATOM     28  CB  GLN A   2      64.732  33.314  47.171  0.00  0.00    +0.000 C 
BRANCH  28  29
ATOM     29  CG  GLN A   2      63.491  33.351  48.069  0.00  0.00    +0.000 C 
BRANCH  29  30
ATOM     30  CD  GLN A   2      63.240  31.986  48.694  0.00  0.00    +0.000 C 
ATOM     31  NE2 GLN A   2      63.275  31.961  50.016  0.00  0.00    +0.000 N 
ATOM     32 HE21 GLN A   2      63.423  32.842  50.549  0.00  0.00    +0.000 HD
ATOM     33 HE22 GLN A   2      63.154  31.061  50.522  0.00  0.00    +0.000 HD
ATOM     34  OE1 GLN A   2      63.070  30.998  47.977  0.00  0.00    +0.000 OA
ENDBRANCH  29  30
ENDBRANCH  28  29
ENDBRANCH  17  28
ENDBRANCH  14  17
ENDBRANCH  12  13
BRANCH  12  35
ATOM     35  CB  GLU A   3      69.162  30.118  45.806  0.00  0.00    +0.000 C 
BRANCH  35  36
ATOM     36  CG  GLU A   3      69.115  29.631  47.238  0.00  0.00    +0.000 C 
BRANCH  36  37
ATOM     37  CD  GLU A   3      70.482  29.730  47.904  0.00  0.00    +0.000 C 
ATOM     38  OE2 GLU A   3      70.530  29.886  49.138  0.00  0.00    +0.000 OA
ATOM     39  OE1 GLU A   3      71.485  29.674  47.163  0.00  0.00    +0.000 OA
ENDBRANCH  36  37
ENDBRANCH  35  36
ENDBRANCH  12  35
ENDBRANCH  10  12
ENDBRANCH   7   8
BRANCH   7  40
ATOM     40  C   UNK A   1      69.804  30.748  41.576  0.00  0.00    +0.000 C 
ATOM     41  O   ACE A   4      69.917  29.796  42.357  0.00  0.00    +0.000 OA
ENDBRANCH   7  40
ENDBRANCH   6   7
ENDBRANCH   3   6
BRANCH   1  42
ATOM     42 ZN   UNK A   1      71.522  37.804  43.421  0.00  0.00    +0.000 Zn
BRANCH  42  43
ATOM     43  N   UNK A   1      70.175  37.262  44.915  0.00  0.00    +0.000 N 
ATOM     44  C   UNK A   1      69.926  36.105  45.493  0.00  0.00    +0.000 A 
ATOM     45  N   UNK A   1      68.927  36.256  46.338  0.00  0.00    +0.000 NA
ATOM     46  C   UNK A   1      68.511  37.572  46.304  0.00  0.00    +0.000 A 
ATOM     47  C   UNK A   1      69.285  38.195  45.387  0.00  0.00    +0.000 A 
BRANCH  46  48
ATOM     48  C   UNK A   1      67.354  38.063  47.123  0.00  0.00    +0.000 C 
BRANCH  48  49
ATOM     49  C   UNK A   1      66.039  37.338  46.755  0.00  0.00    +0.000 C 
BRANCH  49  50
ATOM     50  N   UNK A   1      65.470  38.002  45.564  0.00  0.00    +0.000 NA
ATOM     51  H   UNK A   1      65.968  38.792  45.107  0.00  0.00    +0.000 HD
ENDBRANCH  49  50
BRANCH  49  52
ATOM     52  C   UNK A   1      65.054  37.533  47.930  0.00  0.00    +0.000 C 
ATOM     53  O   UNK A   1      64.868  36.642  48.744  0.00  0.00    +0.000 OA
ENDBRANCH  49  52
ENDBRANCH  48  49
ENDBRANCH  46  48
ENDBRANCH  42  43
BRANCH  42  54
ATOM     54  O   UNK A   1      70.126  38.209  41.656  0.00  0.00    +0.000 OA
BRANCH  54  55
ATOM     55  C   UNK A   1      69.864  39.372  42.027  0.00  0.00    +0.000 C 
ATOM     56  O   UNK A   1      70.357  39.860  43.070  0.00  0.00    +0.000 OA
BRANCH  55  57
ATOM     57  C   UNK A   1      69.013  40.244  41.160  0.00  0.00    +0.000 C 
BRANCH  57  58
ATOM     58  C   UNK A   1      67.521  40.276  41.495  0.00  0.00    +0.000 C 
BRANCH  58  59
ATOM     59  C   UNK A   1      67.308  40.461  42.989  0.00  0.00    +0.000 C 
ATOM     60  O   UNK A   1      66.920  39.522  43.693  0.00  0.00    +0.000 OA
ATOM     61  N   GLN A   2      67.601  41.665  43.479  0.00  0.00    +0.000 N 
ATOM     62  H   GLN A   2      67.890  42.422  42.827  0.00  0.00    +0.000 HD
BRANCH  61  63
ATOM     63  CA  GLN A   2      67.526  41.945  44.901  0.00  0.00    +0.000 C 
BRANCH  63  64
ATOM     64  C   GLN A   2      66.159  41.654  45.482  0.00  0.00    +0.000 C 
ATOM     65  O   GLN A   2      66.027  41.068  46.554  0.00  0.00    +0.000 OA
ENDBRANCH  63  64
BRANCH  63  66
ATOM     66  CB  GLN A   2      67.974  43.359  45.240  0.00  0.00    +0.000 C 
BRANCH  66  67
ATOM     67  CG  GLN A   2      69.361  43.721  44.742  0.00  0.00    +0.000 C 
BRANCH  67  68
ATOM     68  CD  GLN A   2      69.788  45.124  45.097  0.00  0.00    +0.000 C 
BRANCH  68  69
ATOM     69  CE  GLN A   2      71.143  45.479  44.474  0.00  0.00    +0.000 C 
BRANCH  69  70
ATOM     70  NZ  GLN A   2      72.212  44.545  44.949  0.00  0.00    +0.000 N 
ATOM     71  HZ1 GLN A   2      72.292  44.610  45.984  0.00  0.00    +0.000 HD
ATOM     72  HZ2 GLN A   2      71.965  43.571  44.680  0.00  0.00    +0.000 HD
ATOM     73  HZ3 GLN A   2      73.119  44.807  44.512  0.00  0.00    +0.000 HD
ENDBRANCH  69  70
ENDBRANCH  68  69
ENDBRANCH  67  68
ENDBRANCH  66  67
ENDBRANCH  63  66
ENDBRANCH  61  63
ENDBRANCH  58  59
BRANCH  58  74
ATOM     74  N   UNK A   1      66.903  41.373  40.749  0.00  0.00    +0.000 NA
ATOM     75  H   UNK A   1      67.520  41.993  40.186  0.00  0.00    +0.000 HD
ENDBRANCH  58  74
ENDBRANCH  57  58
ENDBRANCH  55  57
ENDBRANCH  54  55
ENDBRANCH  42  54
ENDBRANCH   1  42
TORSDOF 37
REMARK  Name = ../refined-set-2016/1ew8/1ew8_pocket.pdb
REMARK  125 active torsions:
REMARK  status: ('A' for Active; 'I' for Inactive)
REMARK    1  A    between atoms: _1  and  _3
REMARK    2  A    between atoms: _3  and  _4
REMARK    3  A    between atoms: _3  and  _6
REMARK    4  A    between atoms: _6  and  _7
REMARK    5  A    between atoms: _7  and  _8
REMARK    6  A    between atoms: _8  and  ZN_301
REMARK    7  A    between atoms: _10  and  _12
REMARK    8  A    between atoms: _12  and  _13
REMARK    9  A    between atoms: _15  and  _17
REMARK   10  A    between atoms: _17  and  _18
REMARK   11  A    between atoms: _17  and  _20
REMARK   12  A    between atoms: _20  and  _21
REMARK   13  A    between atoms: _21  and  _22
REMARK   14  A    between atoms: _24  and  _26
REMARK   15  A    between atoms: _26  and  _27
REMARK   16  A    between atoms: _26  and  _29
REMARK   17  A    between atoms: _29  and  _30
REMARK   18  A    between atoms: _33  and  _35
REMARK   19  A    between atoms: _35  and  _36
REMARK   20  A    between atoms: _35  and  _38
REMARK   21  A    between atoms: _38  and  _39
REMARK   22  A    between atoms: _42  and  _44
REMARK   23  A    between atoms: _44  and  _45
REMARK   24  A    between atoms: _44  and  _47
REMARK   25  A    between atoms: _47  and  _48
REMARK   26  A    between atoms: _50  and  _52
REMARK   27  A    between atoms: _52  and  _53
REMARK   28  A    between atoms: _56  and  _58
REMARK   29  A    between atoms: _58  and  _59
REMARK   30  A    between atoms: _62  and  _64
REMARK   31  A    between atoms: _64  and  _65
REMARK   32  A    between atoms: _64  and  _67
REMARK   33  A    between atoms: _67  and  _68
REMARK   34  A    between atoms: _70  and  _72
REMARK   35  A    between atoms: _72  and  _73
REMARK   36  A    between atoms: _76  and  _78
REMARK   37  A    between atoms: _78  and  _79
REMARK   38  A    between atoms: _78  and  _81
REMARK   39  A    between atoms: _81  and  _82
REMARK   40  A    between atoms: _87  and  _89
REMARK   41  A    between atoms: _89  and  _90
REMARK   42  A    between atoms: _92  and  _94
REMARK   43  A    between atoms: _94  and  _95
REMARK   44  A    between atoms: _98  and  _100
REMARK   45  A    between atoms: _100  and  _101
REMARK   46  A    between atoms: _100  and  _103
REMARK   47  A    between atoms: _103  and  _104
REMARK   48  A    between atoms: _109  and  _110
REMARK   49  A    between atoms: _113  and  _115
REMARK   50  A    between atoms: _115  and  _116
REMARK   51  A    between atoms: _115  and  _118
REMARK   52  A    between atoms: _118  and  _119
REMARK   53  A    between atoms: _123  and  _124
REMARK   54  A    between atoms: _129  and  _131
REMARK   55  A    between atoms: _131  and  _132
REMARK   56  A    between atoms: _131  and  _134
REMARK   57  A    between atoms: _134  and  _135
REMARK   58  A    between atoms: _135  and  _136
REMARK   59  A    between atoms: _136  and  _137
REMARK   60  A    between atoms: _146  and  _148
REMARK   61  A    between atoms: _148  and  _149
REMARK   62  A    between atoms: _148  and  _151
REMARK   63  A    between atoms: _151  and  _152
REMARK   64  A    between atoms: _152  and  _153
REMARK   65  A    between atoms: _153  and  _154
REMARK   66  A    between atoms: _154  and  _155
REMARK   67  A    between atoms: _159  and  _161
REMARK   68  A    between atoms: _161  and  _162
REMARK   69  A    between atoms: _161  and  _164
REMARK   70  A    between atoms: _164  and  _165
REMARK   71  A    between atoms: _170  and  _171
REMARK   72  A    between atoms: _173  and  _175
REMARK   73  A    between atoms: _175  and  _176
REMARK   74  A    between atoms: _175  and  _178
REMARK   75  A    between atoms: _178  and  _179
REMARK   76  A    between atoms: _179  and  _180
REMARK   77  A    between atoms: _180  and  _182
REMARK   78  A    between atoms: _182  and  MG_302
REMARK   79  A    between atoms: _183  and  _185
REMARK   80  A    between atoms: _185  and  _186
REMARK   81  A    between atoms: _189  and  _191
REMARK   82  A    between atoms: _191  and  _192
REMARK   83  A    between atoms: _191  and  _194
REMARK   84  A    between atoms: _194  and  _195
REMARK   85  A    between atoms: _195  and  _196
REMARK   86  A    between atoms: _196  and  ZN_300
REMARK   87  A    between atoms: _198  and  _200
REMARK   88  A    between atoms: _200  and  _201
REMARK   89  A    between atoms: _200  and  _203
REMARK   90  A    between atoms: _203  and  _204
REMARK   91  A    between atoms: _204  and  _205
REMARK   92  A    between atoms: _205  and  _206
REMARK   93  A    between atoms: _206  and  _207
REMARK   94  A    between atoms: _211  and  _213
REMARK   95  A    between atoms: _213  and  _214
REMARK   96  A    between atoms: _213  and  _216
REMARK   97  A    between atoms: _216  and  _217
REMARK   98  A    between atoms: _221  and  ZN_300
REMARK   99  A    between atoms: _222  and  _224
REMARK  100  A    between atoms: _233  and  _234
REMARK  101  A    between atoms: _242  and  _244
REMARK  102  A    between atoms: _244  and  _245
REMARK  103  A    between atoms: _248  and  _250
REMARK  104  A    between atoms: _250  and  _251
REMARK  105  A    between atoms: _250  and  _253
REMARK  106  A    between atoms: _253  and  _254
REMARK  107  A    between atoms: _259  and  _261
REMARK  108  A    between atoms: _261  and  _262
REMARK  109  A    between atoms: _261  and  _264
REMARK  110  A    between atoms: _264  and  _265
REMARK  111  A    between atoms: _267  and  _269
REMARK  112  A    between atoms: _269  and  _270
REMARK  113  A    between atoms: _269  and  _272
REMARK  114  A    between atoms: _272  and  _273
REMARK  115  A    between atoms: _273  and  _274
REMARK  116  A    between atoms: _279  and  _281
REMARK  117  A    between atoms: _281  and  _282
REMARK  118  A    between atoms: _281  and  _284
REMARK  119  A    between atoms: _284  and  _285
REMARK  120  A    between atoms: _285  and  _286
REMARK  121  A    between atoms: _289  and  _291
REMARK  122  A    between atoms: _291  and  _292
REMARK  123  A    between atoms: _291  and  _294
REMARK  124  A    between atoms: _294  and  _295
REMARK  125  A    between atoms: _299  and  ZN_300
REMARK                            x       y       z     vdW  Elec       q    Type
REMARK                         _______ _______ _______ _____ _____    ______ ____
ROOT
ATOM      1  O   HOH     1      74.696  42.482  41.646  0.00  0.00    +0.000 OA
ENDROOT
TORSDOF 0
REMARK  Name = ../refined-set-2016/1ew8/1ew8_pocket.pdb
REMARK  125 active torsions:
REMARK  status: ('A' for Active; 'I' for Inactive)
REMARK    1  A    between atoms: _1  and  _3
REMARK    2  A    between atoms: _3  and  _4
REMARK    3  A    between atoms: _3  and  _6
REMARK    4  A    between atoms: _6  and  _7
REMARK    5  A    between atoms: _7  and  _8
REMARK    6  A    between atoms: _8  and  ZN_301
REMARK    7  A    between atoms: _10  and  _12
REMARK    8  A    between atoms: _12  and  _13
REMARK    9  A    between atoms: _15  and  _17
REMARK   10  A    between atoms: _17  and  _18
REMARK   11  A    between atoms: _17  and  _20
REMARK   12  A    between atoms: _20  and  _21
REMARK   13  A    between atoms: _21  and  _22
REMARK   14  A    between atoms: _24  and  _26
REMARK   15  A    between atoms: _26  and  _27
REMARK   16  A    between atoms: _26  and  _29
REMARK   17  A    between atoms: _29  and  _30
REMARK   18  A    between atoms: _33  and  _35
REMARK   19  A    between atoms: _35  and  _36
REMARK   20  A    between atoms: _35  and  _38
REMARK   21  A    between atoms: _38  and  _39
REMARK   22  A    between atoms: _42  and  _44
REMARK   23  A    between atoms: _44  and  _45
REMARK   24  A    between atoms: _44  and  _47
REMARK   25  A    between atoms: _47  and  _48
REMARK   26  A    between atoms: _50  and  _52
REMARK   27  A    between atoms: _52  and  _53
REMARK   28  A    between atoms: _56  and  _58
REMARK   29  A    between atoms: _58  and  _59
REMARK   30  A    between atoms: _62  and  _64
REMARK   31  A    between atoms: _64  and  _65
REMARK   32  A    between atoms: _64  and  _67
REMARK   33  A    between atoms: _67  and  _68
REMARK   34  A    between atoms: _70  and  _72
REMARK   35  A    between atoms: _72  and  _73
REMARK   36  A    between atoms: _76  and  _78
REMARK   37  A    between atoms: _78  and  _79
REMARK   38  A    between atoms: _78  and  _81
REMARK   39  A    between atoms: _81  and  _82
REMARK   40  A    between atoms: _87  and  _89
REMARK   41  A    between atoms: _89  and  _90
REMARK   42  A    between atoms: _92  and  _94
REMARK   43  A    between atoms: _94  and  _95
REMARK   44  A    between atoms: _98  and  _100
REMARK   45  A    between atoms: _100  and  _101
REMARK   46  A    between atoms: _100  and  _103
REMARK   47  A    between atoms: _103  and  _104
REMARK   48  A    between atoms: _109  and  _110
REMARK   49  A    between atoms: _113  and  _115
REMARK   50  A    between atoms: _115  and  _116
REMARK   51  A    between atoms: _115  and  _118
REMARK   52  A    between atoms: _118  and  _119
REMARK   53  A    between atoms: _123  and  _124
REMARK   54  A    between atoms: _129  and  _131
REMARK   55  A    between atoms: _131  and  _132
REMARK   56  A    between atoms: _131  and  _134
REMARK   57  A    between atoms: _134  and  _135
REMARK   58  A    between atoms: _135  and  _136
REMARK   59  A    between atoms: _136  and  _137
REMARK   60  A    between atoms: _146  and  _148
REMARK   61  A    between atoms: _148  and  _149
REMARK   62  A    between atoms: _148  and  _151
REMARK   63  A    between atoms: _151  and  _152
REMARK   64  A    between atoms: _152  and  _153
REMARK   65  A    between atoms: _153  and  _154
REMARK   66  A    between atoms: _154  and  _155
REMARK   67  A    between atoms: _159  and  _161
REMARK   68  A    between atoms: _161  and  _162
REMARK   69  A    between atoms: _161  and  _164
REMARK   70  A    between atoms: _164  and  _165
REMARK   71  A    between atoms: _170  and  _171
REMARK   72  A    between atoms: _173  and  _175
REMARK   73  A    between atoms: _175  and  _176
REMARK   74  A    between atoms: _175  and  _178
REMARK   75  A    between atoms: _178  and  _179
REMARK   76  A    between atoms: _179  and  _180
REMARK   77  A    between atoms: _180  and  _182
REMARK   78  A    between atoms: _182  and  MG_302
REMARK   79  A    between atoms: _183  and  _185
REMARK   80  A    between atoms: _185  and  _186
REMARK   81  A    between atoms: _189  and  _191
REMARK   82  A    between atoms: _191  and  _192
REMARK   83  A    between atoms: _191  and  _194
REMARK   84  A    between atoms: _194  and  _195
REMARK   85  A    between atoms: _195  and  _196
REMARK   86  A    between atoms: _196  and  ZN_300
REMARK   87  A    between atoms: _198  and  _200
REMARK   88  A    between atoms: _200  and  _201
REMARK   89  A    between atoms: _200  and  _203
REMARK   90  A    between atoms: _203  and  _204
REMARK   91  A    between atoms: _204  and  _205
REMARK   92  A    between atoms: _205  and  _206
REMARK   93  A    between atoms: _206  and  _207
REMARK   94  A    between atoms: _211  and  _213
REMARK   95  A    between atoms: _213  and  _214
REMARK   96  A    between atoms: _213  and  _216
REMARK   97  A    between atoms: _216  and  _217
REMARK   98  A    between atoms: _221  and  ZN_300
REMARK   99  A    between atoms: _222  and  _224
REMARK  100  A    between atoms: _233  and  _234
REMARK  101  A    between atoms: _242  and  _244
REMARK  102  A    between atoms: _244  and  _245
REMARK  103  A    between atoms: _248  and  _250
REMARK  104  A    between atoms: _250  and  _251
REMARK  105  A    between atoms: _250  and  _253
REMARK  106  A    between atoms: _253  and  _254
REMARK  107  A    between atoms: _259  and  _261
REMARK  108  A    between atoms: _261  and  _262
REMARK  109  A    between atoms: _261  and  _264
REMARK  110  A    between atoms: _264  and  _265
REMARK  111  A    between atoms: _267  and  _269
REMARK  112  A    between atoms: _269  and  _270
REMARK  113  A    between atoms: _269  and  _272
REMARK  114  A    between atoms: _272  and  _273
REMARK  115  A    between atoms: _273  and  _274
REMARK  116  A    between atoms: _279  and  _281
REMARK  117  A    between atoms: _281  and  _282
REMARK  118  A    between atoms: _281  and  _284
REMARK  119  A    between atoms: _284  and  _285
REMARK  120  A    between atoms: _285  and  _286
REMARK  121  A    between atoms: _289  and  _291
REMARK  122  A    between atoms: _291  and  _292
REMARK  123  A    between atoms: _291  and  _294
REMARK  124  A    between atoms: _294  and  _295
REMARK  125  A    between atoms: _299  and  ZN_300
REMARK                            x       y       z     vdW  Elec       q    Type
REMARK                         _______ _______ _______ _____ _____    ______ ____
ROOT
ATOM      1  O   HOH     1      71.998  43.505  41.614  0.00  0.00    +0.000 OA
ENDROOT
TORSDOF 0
REMARK  Name = ../refined-set-2016/1ew8/1ew8_pocket.pdb
REMARK  125 active torsions:
REMARK  status: ('A' for Active; 'I' for Inactive)
REMARK    1  A    between atoms: _1  and  _3
REMARK    2  A    between atoms: _3  and  _4
REMARK    3  A    between atoms: _3  and  _6
REMARK    4  A    between atoms: _6  and  _7
REMARK    5  A    between atoms: _7  and  _8
REMARK    6  A    between atoms: _8  and  ZN_301
REMARK    7  A    between atoms: _10  and  _12
REMARK    8  A    between atoms: _12  and  _13
REMARK    9  A    between atoms: _15  and  _17
REMARK   10  A    between atoms: _17  and  _18
REMARK   11  A    between atoms: _17  and  _20
REMARK   12  A    between atoms: _20  and  _21
REMARK   13  A    between atoms: _21  and  _22
REMARK   14  A    between atoms: _24  and  _26
REMARK   15  A    between atoms: _26  and  _27
REMARK   16  A    between atoms: _26  and  _29
REMARK   17  A    between atoms: _29  and  _30
REMARK   18  A    between atoms: _33  and  _35
REMARK   19  A    between atoms: _35  and  _36
REMARK   20  A    between atoms: _35  and  _38
REMARK   21  A    between atoms: _38  and  _39
REMARK   22  A    between atoms: _42  and  _44
REMARK   23  A    between atoms: _44  and  _45
REMARK   24  A    between atoms: _44  and  _47
REMARK   25  A    between atoms: _47  and  _48
REMARK   26  A    between atoms: _50  and  _52
REMARK   27  A    between atoms: _52  and  _53
REMARK   28  A    between atoms: _56  and  _58
REMARK   29  A    between atoms: _58  and  _59
REMARK   30  A    between atoms: _62  and  _64
REMARK   31  A    between atoms: _64  and  _65
REMARK   32  A    between atoms: _64  and  _67
REMARK   33  A    between atoms: _67  and  _68
REMARK   34  A    between atoms: _70  and  _72
REMARK   35  A    between atoms: _72  and  _73
REMARK   36  A    between atoms: _76  and  _78
REMARK   37  A    between atoms: _78  and  _79
REMARK   38  A    between atoms: _78  and  _81
REMARK   39  A    between atoms: _81  and  _82
REMARK   40  A    between atoms: _87  and  _89
REMARK   41  A    between atoms: _89  and  _90
REMARK   42  A    between atoms: _92  and  _94
REMARK   43  A    between atoms: _94  and  _95
REMARK   44  A    between atoms: _98  and  _100
REMARK   45  A    between atoms: _100  and  _101
REMARK   46  A    between atoms: _100  and  _103
REMARK   47  A    between atoms: _103  and  _104
REMARK   48  A    between atoms: _109  and  _110
REMARK   49  A    between atoms: _113  and  _115
REMARK   50  A    between atoms: _115  and  _116
REMARK   51  A    between atoms: _115  and  _118
REMARK   52  A    between atoms: _118  and  _119
REMARK   53  A    between atoms: _123  and  _124
REMARK   54  A    between atoms: _129  and  _131
REMARK   55  A    between atoms: _131  and  _132
REMARK   56  A    between atoms: _131  and  _134
REMARK   57  A    between atoms: _134  and  _135
REMARK   58  A    between atoms: _135  and  _136
REMARK   59  A    between atoms: _136  and  _137
REMARK   60  A    between atoms: _146  and  _148
REMARK   61  A    between atoms: _148  and  _149
REMARK   62  A    between atoms: _148  and  _151
REMARK   63  A    between atoms: _151  and  _152
REMARK   64  A    between atoms: _152  and  _153
REMARK   65  A    between atoms: _153  and  _154
REMARK   66  A    between atoms: _154  and  _155
REMARK   67  A    between atoms: _159  and  _161
REMARK   68  A    between atoms: _161  and  _162
REMARK   69  A    between atoms: _161  and  _164
REMARK   70  A    between atoms: _164  and  _165
REMARK   71  A    between atoms: _170  and  _171
REMARK   72  A    between atoms: _173  and  _175
REMARK   73  A    between atoms: _175  and  _176
REMARK   74  A    between atoms: _175  and  _178
REMARK   75  A    between atoms: _178  and  _179
REMARK   76  A    between atoms: _179  and  _180
REMARK   77  A    between atoms: _180  and  _182
REMARK   78  A    between atoms: _182  and  MG_302
REMARK   79  A    between atoms: _183  and  _185
REMARK   80  A    between atoms: _185  and  _186
REMARK   81  A    between atoms: _189  and  _191
REMARK   82  A    between atoms: _191  and  _192
REMARK   83  A    between atoms: _191  and  _194
REMARK   84  A    between atoms: _194  and  _195
REMARK   85  A    between atoms: _195  and  _196
REMARK   86  A    between atoms: _196  and  ZN_300
REMARK   87  A    between atoms: _198  and  _200
REMARK   88  A    between atoms: _200  and  _201
REMARK   89  A    between atoms: _200  and  _203
REMARK   90  A    between atoms: _203  and  _204
REMARK   91  A    between atoms: _204  and  _205
REMARK   92  A    between atoms: _205  and  _206
REMARK   93  A    between atoms: _206  and  _207
REMARK   94  A    between atoms: _211  and  _213
REMARK   95  A    between atoms: _213  and  _214
REMARK   96  A    between atoms: _213  and  _216
REMARK   97  A    between atoms: _216  and  _217
REMARK   98  A    between atoms: _221  and  ZN_300
REMARK   99  A    between atoms: _222  and  _224
REMARK  100  A    between atoms: _233  and  _234
REMARK  101  A    between atoms: _242  and  _244
REMARK  102  A    between atoms: _244  and  _245
REMARK  103  A    between atoms: _248  and  _250
REMARK  104  A    between atoms: _250  and  _251
REMARK  105  A    between atoms: _250  and  _253
REMARK  106  A    between atoms: _253  and  _254
REMARK  107  A    between atoms: _259  and  _261
REMARK  108  A    between atoms: _261  and  _262
REMARK  109  A    between atoms: _261  and  _264
REMARK  110  A    between atoms: _264  and  _265
REMARK  111  A    between atoms: _267  and  _269
REMARK  112  A    between atoms: _269  and  _270
REMARK  113  A    between atoms: _269  and  _272
REMARK  114  A    between atoms: _272  and  _273
REMARK  115  A    between atoms: _273  and  _274
REMARK  116  A    between atoms: _279  and  _281
REMARK  117  A    between atoms: _281  and  _282
REMARK  118  A    between atoms: _281  and  _284
REMARK  119  A    between atoms: _284  and  _285
REMARK  120  A    between atoms: _285  and  _286
REMARK  121  A    between atoms: _289  and  _291
REMARK  122  A    between atoms: _291  and  _292
REMARK  123  A    between atoms: _291  and  _294
REMARK  124  A    between atoms: _294  and  _295
REMARK  125  A    between atoms: _299  and  ZN_300
REMARK                            x       y       z     vdW  Elec       q    Type
REMARK                         _______ _______ _______ _____ _____    ______ ____
ROOT
ATOM      1  O   HOH     1      72.284  41.985  43.537  0.00  0.00    +0.000 OA
ENDROOT
TORSDOF 0
REMARK  Name = ../refined-set-2016/1ew8/1ew8_pocket.pdb
REMARK  125 active torsions:
REMARK  status: ('A' for Active; 'I' for Inactive)
REMARK    1  A    between atoms: _1  and  _3
REMARK    2  A    between atoms: _3  and  _4
REMARK    3  A    between atoms: _3  and  _6
REMARK    4  A    between atoms: _6  and  _7
REMARK    5  A    between atoms: _7  and  _8
REMARK    6  A    between atoms: _8  and  ZN_301
REMARK    7  A    between atoms: _10  and  _12
REMARK    8  A    between atoms: _12  and  _13
REMARK    9  A    between atoms: _15  and  _17
REMARK   10  A    between atoms: _17  and  _18
REMARK   11  A    between atoms: _17  and  _20
REMARK   12  A    between atoms: _20  and  _21
REMARK   13  A    between atoms: _21  and  _22
REMARK   14  A    between atoms: _24  and  _26
REMARK   15  A    between atoms: _26  and  _27
REMARK   16  A    between atoms: _26  and  _29
REMARK   17  A    between atoms: _29  and  _30
REMARK   18  A    between atoms: _33  and  _35
REMARK   19  A    between atoms: _35  and  _36
REMARK   20  A    between atoms: _35  and  _38
REMARK   21  A    between atoms: _38  and  _39
REMARK   22  A    between atoms: _42  and  _44
REMARK   23  A    between atoms: _44  and  _45
REMARK   24  A    between atoms: _44  and  _47
REMARK   25  A    between atoms: _47  and  _48
REMARK   26  A    between atoms: _50  and  _52
REMARK   27  A    between atoms: _52  and  _53
REMARK   28  A    between atoms: _56  and  _58
REMARK   29  A    between atoms: _58  and  _59
REMARK   30  A    between atoms: _62  and  _64
REMARK   31  A    between atoms: _64  and  _65
REMARK   32  A    between atoms: _64  and  _67
REMARK   33  A    between atoms: _67  and  _68
REMARK   34  A    between atoms: _70  and  _72
REMARK   35  A    between atoms: _72  and  _73
REMARK   36  A    between atoms: _76  and  _78
REMARK   37  A    between atoms: _78  and  _79
REMARK   38  A    between atoms: _78  and  _81
REMARK   39  A    between atoms: _81  and  _82
REMARK   40  A    between atoms: _87  and  _89
REMARK   41  A    between atoms: _89  and  _90
REMARK   42  A    between atoms: _92  and  _94
REMARK   43  A    between atoms: _94  and  _95
REMARK   44  A    between atoms: _98  and  _100
REMARK   45  A    between atoms: _100  and  _101
REMARK   46  A    between atoms: _100  and  _103
REMARK   47  A    between atoms: _103  and  _104
REMARK   48  A    between atoms: _109  and  _110
REMARK   49  A    between atoms: _113  and  _115
REMARK   50  A    between atoms: _115  and  _116
REMARK   51  A    between atoms: _115  and  _118
REMARK   52  A    between atoms: _118  and  _119
REMARK   53  A    between atoms: _123  and  _124
REMARK   54  A    between atoms: _129  and  _131
REMARK   55  A    between atoms: _131  and  _132
REMARK   56  A    between atoms: _131  and  _134
REMARK   57  A    between atoms: _134  and  _135
REMARK   58  A    between atoms: _135  and  _136
REMARK   59  A    between atoms: _136  and  _137
REMARK   60  A    between atoms: _146  and  _148
REMARK   61  A    between atoms: _148  and  _149
REMARK   62  A    between atoms: _148  and  _151
REMARK   63  A    between atoms: _151  and  _152
REMARK   64  A    between atoms: _152  and  _153
REMARK   65  A    between atoms: _153  and  _154
REMARK   66  A    between atoms: _154  and  _155
REMARK   67  A    between atoms: _159  and  _161
REMARK   68  A    between atoms: _161  and  _162
REMARK   69  A    between atoms: _161  and  _164
REMARK   70  A    between atoms: _164  and  _165
REMARK   71  A    between atoms: _170  and  _171
REMARK   72  A    between atoms: _173  and  _175
REMARK   73  A    between atoms: _175  and  _176
REMARK   74  A    between atoms: _175  and  _178
REMARK   75  A    between atoms: _178  and  _179
REMARK   76  A    between atoms: _179  and  _180
REMARK   77  A    between atoms: _180  and  _182
REMARK   78  A    between atoms: _182  and  MG_302
REMARK   79  A    between atoms: _183  and  _185
REMARK   80  A    between atoms: _185  and  _186
REMARK   81  A    between atoms: _189  and  _191
REMARK   82  A    between atoms: _191  and  _192
REMARK   83  A    between atoms: _191  and  _194
REMARK   84  A    between atoms: _194  and  _195
REMARK   85  A    between atoms: _195  and  _196
REMARK   86  A    between atoms: _196  and  ZN_300
REMARK   87  A    between atoms: _198  and  _200
REMARK   88  A    between atoms: _200  and  _201
REMARK   89  A    between atoms: _200  and  _203
REMARK   90  A    between atoms: _203  and  _204
REMARK   91  A    between atoms: _204  and  _205
REMARK   92  A    between atoms: _205  and  _206
REMARK   93  A    between atoms: _206  and  _207
REMARK   94  A    between atoms: _211  and  _213
REMARK   95  A    between atoms: _213  and  _214
REMARK   96  A    between atoms: _213  and  _216
REMARK   97  A    between atoms: _216  and  _217
REMARK   98  A    between atoms: _221  and  ZN_300
REMARK   99  A    between atoms: _222  and  _224
REMARK  100  A    between atoms: _233  and  _234
REMARK  101  A    between atoms: _242  and  _244
REMARK  102  A    between atoms: _244  and  _245
REMARK  103  A    between atoms: _248  and  _250
REMARK  104  A    between atoms: _250  and  _251
REMARK  105  A    between atoms: _250  and  _253
REMARK  106  A    between atoms: _253  and  _254
REMARK  107  A    between atoms: _259  and  _261
REMARK  108  A    between atoms: _261  and  _262
REMARK  109  A    between atoms: _261  and  _264
REMARK  110  A    between atoms: _264  and  _265
REMARK  111  A    between atoms: _267  and  _269
REMARK  112  A    between atoms: _269  and  _270
REMARK  113  A    between atoms: _269  and  _272
REMARK  114  A    between atoms: _272  and  _273
REMARK  115  A    between atoms: _273  and  _274
REMARK  116  A    between atoms: _279  and  _281
REMARK  117  A    between atoms: _281  and  _282
REMARK  118  A    between atoms: _281  and  _284
REMARK  119  A    between atoms: _284  and  _285
REMARK  120  A    between atoms: _285  and  _286
REMARK  121  A    between atoms: _289  and  _291
REMARK  122  A    between atoms: _291  and  _292
REMARK  123  A    between atoms: _291  and  _294
REMARK  124  A    between atoms: _294  and  _295
REMARK  125  A    between atoms: _299  and  ZN_300
REMARK                            x       y       z     vdW  Elec       q    Type
REMARK                         _______ _______ _______ _____ _____    ______ ____
ROOT
ATOM      1  O   HOH     1      81.080  44.073  44.797  0.00  0.00    +0.000 OA
ENDROOT
TORSDOF 0
REMARK  Name = ../refined-set-2016/1ew8/1ew8_pocket.pdb
REMARK  125 active torsions:
REMARK  status: ('A' for Active; 'I' for Inactive)
REMARK    1  A    between atoms: _1  and  _3
REMARK    2  A    between atoms: _3  and  _4
REMARK    3  A    between atoms: _3  and  _6
REMARK    4  A    between atoms: _6  and  _7
REMARK    5  A    between atoms: _7  and  _8
REMARK    6  A    between atoms: _8  and  ZN_301
REMARK    7  A    between atoms: _10  and  _12
REMARK    8  A    between atoms: _12  and  _13
REMARK    9  A    between atoms: _15  and  _17
REMARK   10  A    between atoms: _17  and  _18
REMARK   11  A    between atoms: _17  and  _20
REMARK   12  A    between atoms: _20  and  _21
REMARK   13  A    between atoms: _21  and  _22
REMARK   14  A    between atoms: _24  and  _26
REMARK   15  A    between atoms: _26  and  _27
REMARK   16  A    between atoms: _26  and  _29
REMARK   17  A    between atoms: _29  and  _30
REMARK   18  A    between atoms: _33  and  _35
REMARK   19  A    between atoms: _35  and  _36
REMARK   20  A    between atoms: _35  and  _38
REMARK   21  A    between atoms: _38  and  _39
REMARK   22  A    between atoms: _42  and  _44
REMARK   23  A    between atoms: _44  and  _45
REMARK   24  A    between atoms: _44  and  _47
REMARK   25  A    between atoms: _47  and  _48
REMARK   26  A    between atoms: _50  and  _52
REMARK   27  A    between atoms: _52  and  _53
REMARK   28  A    between atoms: _56  and  _58
REMARK   29  A    between atoms: _58  and  _59
REMARK   30  A    between atoms: _62  and  _64
REMARK   31  A    between atoms: _64  and  _65
REMARK   32  A    between atoms: _64  and  _67
REMARK   33  A    between atoms: _67  and  _68
REMARK   34  A    between atoms: _70  and  _72
REMARK   35  A    between atoms: _72  and  _73
REMARK   36  A    between atoms: _76  and  _78
REMARK   37  A    between atoms: _78  and  _79
REMARK   38  A    between atoms: _78  and  _81
REMARK   39  A    between atoms: _81  and  _82
REMARK   40  A    between atoms: _87  and  _89
REMARK   41  A    between atoms: _89  and  _90
REMARK   42  A    between atoms: _92  and  _94
REMARK   43  A    between atoms: _94  and  _95
REMARK   44  A    between atoms: _98  and  _100
REMARK   45  A    between atoms: _100  and  _101
REMARK   46  A    between atoms: _100  and  _103
REMARK   47  A    between atoms: _103  and  _104
REMARK   48  A    between atoms: _109  and  _110
REMARK   49  A    between atoms: _113  and  _115
REMARK   50  A    between atoms: _115  and  _116
REMARK   51  A    between atoms: _115  and  _118
REMARK   52  A    between atoms: _118  and  _119
REMARK   53  A    between atoms: _123  and  _124
REMARK   54  A    between atoms: _129  and  _131
REMARK   55  A    between atoms: _131  and  _132
REMARK   56  A    between atoms: _131  and  _134
REMARK   57  A    between atoms: _134  and  _135
REMARK   58  A    between atoms: _135  and  _136
REMARK   59  A    between atoms: _136  and  _137
REMARK   60  A    between atoms: _146  and  _148
REMARK   61  A    between atoms: _148  and  _149
REMARK   62  A    between atoms: _148  and  _151
REMARK   63  A    between atoms: _151  and  _152
REMARK   64  A    between atoms: _152  and  _153
REMARK   65  A    between atoms: _153  and  _154
REMARK   66  A    between atoms: _154  and  _155
REMARK   67  A    between atoms: _159  and  _161
REMARK   68  A    between atoms: _161  and  _162
REMARK   69  A    between atoms: _161  and  _164
REMARK   70  A    between atoms: _164  and  _165
REMARK   71  A    between atoms: _170  and  _171
REMARK   72  A    between atoms: _173  and  _175
REMARK   73  A    between atoms: _175  and  _176
REMARK   74  A    between atoms: _175  and  _178
REMARK   75  A    between atoms: _178  and  _179
REMARK   76  A    between atoms: _179  and  _180
REMARK   77  A    between atoms: _180  and  _182
REMARK   78  A    between atoms: _182  and  MG_302
REMARK   79  A    between atoms: _183  and  _185
REMARK   80  A    between atoms: _185  and  _186
REMARK   81  A    between atoms: _189  and  _191
REMARK   82  A    between atoms: _191  and  _192
REMARK   83  A    between atoms: _191  and  _194
REMARK   84  A    between atoms: _194  and  _195
REMARK   85  A    between atoms: _195  and  _196
REMARK   86  A    between atoms: _196  and  ZN_300
REMARK   87  A    between atoms: _198  and  _200
REMARK   88  A    between atoms: _200  and  _201
REMARK   89  A    between atoms: _200  and  _203
REMARK   90  A    between atoms: _203  and  _204
REMARK   91  A    between atoms: _204  and  _205
REMARK   92  A    between atoms: _205  and  _206
REMARK   93  A    between atoms: _206  and  _207
REMARK   94  A    between atoms: _211  and  _213
REMARK   95  A    between atoms: _213  and  _214
REMARK   96  A    between atoms: _213  and  _216
REMARK   97  A    between atoms: _216  and  _217
REMARK   98  A    between atoms: _221  and  ZN_300
REMARK   99  A    between atoms: _222  and  _224
REMARK  100  A    between atoms: _233  and  _234
REMARK  101  A    between atoms: _242  and  _244
REMARK  102  A    between atoms: _244  and  _245
REMARK  103  A    between atoms: _248  and  _250
REMARK  104  A    between atoms: _250  and  _251
REMARK  105  A    between atoms: _250  and  _253
REMARK  106  A    between atoms: _253  and  _254
REMARK  107  A    between atoms: _259  and  _261
REMARK  108  A    between atoms: _261  and  _262
REMARK  109  A    between atoms: _261  and  _264
REMARK  110  A    between atoms: _264  and  _265
REMARK  111  A    between atoms: _267  and  _269
REMARK  112  A    between atoms: _269  and  _270
REMARK  113  A    between atoms: _269  and  _272
REMARK  114  A    between atoms: _272  and  _273
REMARK  115  A    between atoms: _273  and  _274
REMARK  116  A    between atoms: _279  and  _281
REMARK  117  A    between atoms: _281  and  _282
REMARK  118  A    between atoms: _281  and  _284
REMARK  119  A    between atoms: _284  and  _285
REMARK  120  A    between atoms: _285  and  _286
REMARK  121  A    between atoms: _289  and  _291
REMARK  122  A    between atoms: _291  and  _292
REMARK  123  A    between atoms: _291  and  _294
REMARK  124  A    between atoms: _294  and  _295
REMARK  125  A    between atoms: _299  and  ZN_300
REMARK                            x       y       z     vdW  Elec       q    Type
REMARK                         _______ _______ _______ _____ _____    ______ ____
ROOT
ATOM      1  O   HOH     1      78.882  35.457  46.067  0.00  0.00    +0.000 OA
ENDROOT
TORSDOF 0
REMARK  Name = ../refined-set-2016/1ew8/1ew8_pocket.pdb
REMARK  125 active torsions:
REMARK  status: ('A' for Active; 'I' for Inactive)
REMARK    1  A    between atoms: _1  and  _3
REMARK    2  A    between atoms: _3  and  _4
REMARK    3  A    between atoms: _3  and  _6
REMARK    4  A    between atoms: _6  and  _7
REMARK    5  A    between atoms: _7  and  _8
REMARK    6  A    between atoms: _8  and  ZN_301
REMARK    7  A    between atoms: _10  and  _12
REMARK    8  A    between atoms: _12  and  _13
REMARK    9  A    between atoms: _15  and  _17
REMARK   10  A    between atoms: _17  and  _18
REMARK   11  A    between atoms: _17  and  _20
REMARK   12  A    between atoms: _20  and  _21
REMARK   13  A    between atoms: _21  and  _22
REMARK   14  A    between atoms: _24  and  _26
REMARK   15  A    between atoms: _26  and  _27
REMARK   16  A    between atoms: _26  and  _29
REMARK   17  A    between atoms: _29  and  _30
REMARK   18  A    between atoms: _33  and  _35
REMARK   19  A    between atoms: _35  and  _36
REMARK   20  A    between atoms: _35  and  _38
REMARK   21  A    between atoms: _38  and  _39
REMARK   22  A    between atoms: _42  and  _44
REMARK   23  A    between atoms: _44  and  _45
REMARK   24  A    between atoms: _44  and  _47
REMARK   25  A    between atoms: _47  and  _48
REMARK   26  A    between atoms: _50  and  _52
REMARK   27  A    between atoms: _52  and  _53
REMARK   28  A    between atoms: _56  and  _58
REMARK   29  A    between atoms: _58  and  _59
REMARK   30  A    between atoms: _62  and  _64
REMARK   31  A    between atoms: _64  and  _65
REMARK   32  A    between atoms: _64  and  _67
REMARK   33  A    between atoms: _67  and  _68
REMARK   34  A    between atoms: _70  and  _72
REMARK   35  A    between atoms: _72  and  _73
REMARK   36  A    between atoms: _76  and  _78
REMARK   37  A    between atoms: _78  and  _79
REMARK   38  A    between atoms: _78  and  _81
REMARK   39  A    between atoms: _81  and  _82
REMARK   40  A    between atoms: _87  and  _89
REMARK   41  A    between atoms: _89  and  _90
REMARK   42  A    between atoms: _92  and  _94
REMARK   43  A    between atoms: _94  and  _95
REMARK   44  A    between atoms: _98  and  _100
REMARK   45  A    between atoms: _100  and  _101
REMARK   46  A    between atoms: _100  and  _103
REMARK   47  A    between atoms: _103  and  _104
REMARK   48  A    between atoms: _109  and  _110
REMARK   49  A    between atoms: _113  and  _115
REMARK   50  A    between atoms: _115  and  _116
REMARK   51  A    between atoms: _115  and  _118
REMARK   52  A    between atoms: _118  and  _119
REMARK   53  A    between atoms: _123  and  _124
REMARK   54  A    between atoms: _129  and  _131
REMARK   55  A    between atoms: _131  and  _132
REMARK   56  A    between atoms: _131  and  _134
REMARK   57  A    between atoms: _134  and  _135
REMARK   58  A    between atoms: _135  and  _136
REMARK   59  A    between atoms: _136  and  _137
REMARK   60  A    between atoms: _146  and  _148
REMARK   61  A    between atoms: _148  and  _149
REMARK   62  A    between atoms: _148  and  _151
REMARK   63  A    between atoms: _151  and  _152
REMARK   64  A    between atoms: _152  and  _153
REMARK   65  A    between atoms: _153  and  _154
REMARK   66  A    between atoms: _154  and  _155
REMARK   67  A    between atoms: _159  and  _161
REMARK   68  A    between atoms: _161  and  _162
REMARK   69  A    between atoms: _161  and  _164
REMARK   70  A    between atoms: _164  and  _165
REMARK   71  A    between atoms: _170  and  _171
REMARK   72  A    between atoms: _173  and  _175
REMARK   73  A    between atoms: _175  and  _176
REMARK   74  A    between atoms: _175  and  _178
REMARK   75  A    between atoms: _178  and  _179
REMARK   76  A    between atoms: _179  and  _180
REMARK   77  A    between atoms: _180  and  _182
REMARK   78  A    between atoms: _182  and  MG_302
REMARK   79  A    between atoms: _183  and  _185
REMARK   80  A    between atoms: _185  and  _186
REMARK   81  A    between atoms: _189  and  _191
REMARK   82  A    between atoms: _191  and  _192
REMARK   83  A    between atoms: _191  and  _194
REMARK   84  A    between atoms: _194  and  _195
REMARK   85  A    between atoms: _195  and  _196
REMARK   86  A    between atoms: _196  and  ZN_300
REMARK   87  A    between atoms: _198  and  _200
REMARK   88  A    between atoms: _200  and  _201
REMARK   89  A    between atoms: _200  and  _203
REMARK   90  A    between atoms: _203  and  _204
REMARK   91  A    between atoms: _204  and  _205
REMARK   92  A    between atoms: _205  and  _206
REMARK   93  A    between atoms: _206  and  _207
REMARK   94  A    between atoms: _211  and  _213
REMARK   95  A    between atoms: _213  and  _214
REMARK   96  A    between atoms: _213  and  _216
REMARK   97  A    between atoms: _216  and  _217
REMARK   98  A    between atoms: _221  and  ZN_300
REMARK   99  A    between atoms: _222  and  _224
REMARK  100  A    between atoms: _233  and  _234
REMARK  101  A    between atoms: _242  and  _244
REMARK  102  A    between atoms: _244  and  _245
REMARK  103  A    between atoms: _248  and  _250
REMARK  104  A    between atoms: _250  and  _251
REMARK  105  A    between atoms: _250  and  _253
REMARK  106  A    between atoms: _253  and  _254
REMARK  107  A    between atoms: _259  and  _261
REMARK  108  A    between atoms: _261  and  _262
REMARK  109  A    between atoms: _261  and  _264
REMARK  110  A    between atoms: _264  and  _265
REMARK  111  A    between atoms: _267  and  _269
REMARK  112  A    between atoms: _269  and  _270
REMARK  113  A    between atoms: _269  and  _272
REMARK  114  A    between atoms: _272  and  _273
REMARK  115  A    between atoms: _273  and  _274
REMARK  116  A    between atoms: _279  and  _281
REMARK  117  A    between atoms: _281  and  _282
REMARK  118  A    between atoms: _281  and  _284
REMARK  119  A    between atoms: _284  and  _285
REMARK  120  A    between atoms: _285  and  _286
REMARK  121  A    between atoms: _289  and  _291
REMARK  122  A    between atoms: _291  and  _292
REMARK  123  A    between atoms: _291  and  _294
REMARK  124  A    between atoms: _294  and  _295
REMARK  125  A    between atoms: _299  and  ZN_300
REMARK                            x       y       z     vdW  Elec       q    Type
REMARK                         _______ _______ _______ _____ _____    ______ ____
ROOT
ATOM      1  O   HOH     1      71.982  44.250  48.363  0.00  0.00    +0.000 OA
ENDROOT
TORSDOF 0
REMARK  Name = ../refined-set-2016/1ew8/1ew8_pocket.pdb
REMARK  125 active torsions:
REMARK  status: ('A' for Active; 'I' for Inactive)
REMARK    1  A    between atoms: _1  and  _3
REMARK    2  A    between atoms: _3  and  _4
REMARK    3  A    between atoms: _3  and  _6
REMARK    4  A    between atoms: _6  and  _7
REMARK    5  A    between atoms: _7  and  _8
REMARK    6  A    between atoms: _8  and  ZN_301
REMARK    7  A    between atoms: _10  and  _12
REMARK    8  A    between atoms: _12  and  _13
REMARK    9  A    between atoms: _15  and  _17
REMARK   10  A    between atoms: _17  and  _18
REMARK   11  A    between atoms: _17  and  _20
REMARK   12  A    between atoms: _20  and  _21
REMARK   13  A    between atoms: _21  and  _22
REMARK   14  A    between atoms: _24  and  _26
REMARK   15  A    between atoms: _26  and  _27
REMARK   16  A    between atoms: _26  and  _29
REMARK   17  A    between atoms: _29  and  _30
REMARK   18  A    between atoms: _33  and  _35
REMARK   19  A    between atoms: _35  and  _36
REMARK   20  A    between atoms: _35  and  _38
REMARK   21  A    between atoms: _38  and  _39
REMARK   22  A    between atoms: _42  and  _44
REMARK   23  A    between atoms: _44  and  _45
REMARK   24  A    between atoms: _44  and  _47
REMARK   25  A    between atoms: _47  and  _48
REMARK   26  A    between atoms: _50  and  _52
REMARK   27  A    between atoms: _52  and  _53
REMARK   28  A    between atoms: _56  and  _58
REMARK   29  A    between atoms: _58  and  _59
REMARK   30  A    between atoms: _62  and  _64
REMARK   31  A    between atoms: _64  and  _65
REMARK   32  A    between atoms: _64  and  _67
REMARK   33  A    between atoms: _67  and  _68
REMARK   34  A    between atoms: _70  and  _72
REMARK   35  A    between atoms: _72  and  _73
REMARK   36  A    between atoms: _76  and  _78
REMARK   37  A    between atoms: _78  and  _79
REMARK   38  A    between atoms: _78  and  _81
REMARK   39  A    between atoms: _81  and  _82
REMARK   40  A    between atoms: _87  and  _89
REMARK   41  A    between atoms: _89  and  _90
REMARK   42  A    between atoms: _92  and  _94
REMARK   43  A    between atoms: _94  and  _95
REMARK   44  A    between atoms: _98  and  _100
REMARK   45  A    between atoms: _100  and  _101
REMARK   46  A    between atoms: _100  and  _103
REMARK   47  A    between atoms: _103  and  _104
REMARK   48  A    between atoms: _109  and  _110
REMARK   49  A    between atoms: _113  and  _115
REMARK   50  A    between atoms: _115  and  _116
REMARK   51  A    between atoms: _115  and  _118
REMARK   52  A    between atoms: _118  and  _119
REMARK   53  A    between atoms: _123  and  _124
REMARK   54  A    between atoms: _129  and  _131
REMARK   55  A    between atoms: _131  and  _132
REMARK   56  A    between atoms: _131  and  _134
REMARK   57  A    between atoms: _134  and  _135
REMARK   58  A    between atoms: _135  and  _136
REMARK   59  A    between atoms: _136  and  _137
REMARK   60  A    between atoms: _146  and  _148
REMARK   61  A    between atoms: _148  and  _149
REMARK   62  A    between atoms: _148  and  _151
REMARK   63  A    between atoms: _151  and  _152
REMARK   64  A    between atoms: _152  and  _153
REMARK   65  A    between atoms: _153  and  _154
REMARK   66  A    between atoms: _154  and  _155
REMARK   67  A    between atoms: _159  and  _161
REMARK   68  A    between atoms: _161  and  _162
REMARK   69  A    between atoms: _161  and  _164
REMARK   70  A    between atoms: _164  and  _165
REMARK   71  A    between atoms: _170  and  _171
REMARK   72  A    between atoms: _173  and  _175
REMARK   73  A    between atoms: _175  and  _176
REMARK   74  A    between atoms: _175  and  _178
REMARK   75  A    between atoms: _178  and  _179
REMARK   76  A    between atoms: _179  and  _180
REMARK   77  A    between atoms: _180  and  _182
REMARK   78  A    between atoms: _182  and  MG_302
REMARK   79  A    between atoms: _183  and  _185
REMARK   80  A    between atoms: _185  and  _186
REMARK   81  A    between atoms: _189  and  _191
REMARK   82  A    between atoms: _191  and  _192
REMARK   83  A    between atoms: _191  and  _194
REMARK   84  A    between atoms: _194  and  _195
REMARK   85  A    between atoms: _195  and  _196
REMARK   86  A    between atoms: _196  and  ZN_300
REMARK   87  A    between atoms: _198  and  _200
REMARK   88  A    between atoms: _200  and  _201
REMARK   89  A    between atoms: _200  and  _203
REMARK   90  A    between atoms: _203  and  _204
REMARK   91  A    between atoms: _204  and  _205
REMARK   92  A    between atoms: _205  and  _206
REMARK   93  A    between atoms: _206  and  _207
REMARK   94  A    between atoms: _211  and  _213
REMARK   95  A    between atoms: _213  and  _214
REMARK   96  A    between atoms: _213  and  _216
REMARK   97  A    between atoms: _216  and  _217
REMARK   98  A    between atoms: _221  and  ZN_300
REMARK   99  A    between atoms: _222  and  _224
REMARK  100  A    between atoms: _233  and  _234
REMARK  101  A    between atoms: _242  and  _244
REMARK  102  A    between atoms: _244  and  _245
REMARK  103  A    between atoms: _248  and  _250
REMARK  104  A    between atoms: _250  and  _251
REMARK  105  A    between atoms: _250  and  _253
REMARK  106  A    between atoms: _253  and  _254
REMARK  107  A    between atoms: _259  and  _261
REMARK  108  A    between atoms: _261  and  _262
REMARK  109  A    between atoms: _261  and  _264
REMARK  110  A    between atoms: _264  and  _265
REMARK  111  A    between atoms: _267  and  _269
REMARK  112  A    between atoms: _269  and  _270
REMARK  113  A    between atoms: _269  and  _272
REMARK  114  A    between atoms: _272  and  _273
REMARK  115  A    between atoms: _273  and  _274
REMARK  116  A    between atoms: _279  and  _281
REMARK  117  A    between atoms: _281  and  _282
REMARK  118  A    between atoms: _281  and  _284
REMARK  119  A    between atoms: _284  and  _285
REMARK  120  A    between atoms: _285  and  _286
REMARK  121  A    between atoms: _289  and  _291
REMARK  122  A    between atoms: _291  and  _292
REMARK  123  A    between atoms: _291  and  _294
REMARK  124  A    between atoms: _294  and  _295
REMARK  125  A    between atoms: _299  and  ZN_300
REMARK                            x       y       z     vdW  Elec       q    Type
REMARK                         _______ _______ _______ _____ _____    ______ ____
ROOT
ATOM      1  O   HOH     1      78.994  43.195  45.730  0.00  0.00    +0.000 OA
ENDROOT
TORSDOF 0
REMARK  Name = ../refined-set-2016/1ew8/1ew8_pocket.pdb
REMARK  125 active torsions:
REMARK  status: ('A' for Active; 'I' for Inactive)
REMARK    1  A    between atoms: _1  and  _3
REMARK    2  A    between atoms: _3  and  _4
REMARK    3  A    between atoms: _3  and  _6
REMARK    4  A    between atoms: _6  and  _7
REMARK    5  A    between atoms: _7  and  _8
REMARK    6  A    between atoms: _8  and  ZN_301
REMARK    7  A    between atoms: _10  and  _12
REMARK    8  A    between atoms: _12  and  _13
REMARK    9  A    between atoms: _15  and  _17
REMARK   10  A    between atoms: _17  and  _18
REMARK   11  A    between atoms: _17  and  _20
REMARK   12  A    between atoms: _20  and  _21
REMARK   13  A    between atoms: _21  and  _22
REMARK   14  A    between atoms: _24  and  _26
REMARK   15  A    between atoms: _26  and  _27
REMARK   16  A    between atoms: _26  and  _29
REMARK   17  A    between atoms: _29  and  _30
REMARK   18  A    between atoms: _33  and  _35
REMARK   19  A    between atoms: _35  and  _36
REMARK   20  A    between atoms: _35  and  _38
REMARK   21  A    between atoms: _38  and  _39
REMARK   22  A    between atoms: _42  and  _44
REMARK   23  A    between atoms: _44  and  _45
REMARK   24  A    between atoms: _44  and  _47
REMARK   25  A    between atoms: _47  and  _48
REMARK   26  A    between atoms: _50  and  _52
REMARK   27  A    between atoms: _52  and  _53
REMARK   28  A    between atoms: _56  and  _58
REMARK   29  A    between atoms: _58  and  _59
REMARK   30  A    between atoms: _62  and  _64
REMARK   31  A    between atoms: _64  and  _65
REMARK   32  A    between atoms: _64  and  _67
REMARK   33  A    between atoms: _67  and  _68
REMARK   34  A    between atoms: _70  and  _72
REMARK   35  A    between atoms: _72  and  _73
REMARK   36  A    between atoms: _76  and  _78
REMARK   37  A    between atoms: _78  and  _79
REMARK   38  A    between atoms: _78  and  _81
REMARK   39  A    between atoms: _81  and  _82
REMARK   40  A    between atoms: _87  and  _89
REMARK   41  A    between atoms: _89  and  _90
REMARK   42  A    between atoms: _92  and  _94
REMARK   43  A    between atoms: _94  and  _95
REMARK   44  A    between atoms: _98  and  _100
REMARK   45  A    between atoms: _100  and  _101
REMARK   46  A    between atoms: _100  and  _103
REMARK   47  A    between atoms: _103  and  _104
REMARK   48  A    between atoms: _109  and  _110
REMARK   49  A    between atoms: _113  and  _115
REMARK   50  A    between atoms: _115  and  _116
REMARK   51  A    between atoms: _115  and  _118
REMARK   52  A    between atoms: _118  and  _119
REMARK   53  A    between atoms: _123  and  _124
REMARK   54  A    between atoms: _129  and  _131
REMARK   55  A    between atoms: _131  and  _132
REMARK   56  A    between atoms: _131  and  _134
REMARK   57  A    between atoms: _134  and  _135
REMARK   58  A    between atoms: _135  and  _136
REMARK   59  A    between atoms: _136  and  _137
REMARK   60  A    between atoms: _146  and  _148
REMARK   61  A    between atoms: _148  and  _149
REMARK   62  A    between atoms: _148  and  _151
REMARK   63  A    between atoms: _151  and  _152
REMARK   64  A    between atoms: _152  and  _153
REMARK   65  A    between atoms: _153  and  _154
REMARK   66  A    between atoms: _154  and  _155
REMARK   67  A    between atoms: _159  and  _161
REMARK   68  A    between atoms: _161  and  _162
REMARK   69  A    between atoms: _161  and  _164
REMARK   70  A    between atoms: _164  and  _165
REMARK   71  A    between atoms: _170  and  _171
REMARK   72  A    between atoms: _173  and  _175
REMARK   73  A    between atoms: _175  and  _176
REMARK   74  A    between atoms: _175  and  _178
REMARK   75  A    between atoms: _178  and  _179
REMARK   76  A    between atoms: _179  and  _180
REMARK   77  A    between atoms: _180  and  _182
REMARK   78  A    between atoms: _182  and  MG_302
REMARK   79  A    between atoms: _183  and  _185
REMARK   80  A    between atoms: _185  and  _186
REMARK   81  A    between atoms: _189  and  _191
REMARK   82  A    between atoms: _191  and  _192
REMARK   83  A    between atoms: _191  and  _194
REMARK   84  A    between atoms: _194  and  _195
REMARK   85  A    between atoms: _195  and  _196
REMARK   86  A    between atoms: _196  and  ZN_300
REMARK   87  A    between atoms: _198  and  _200
REMARK   88  A    between atoms: _200  and  _201
REMARK   89  A    between atoms: _200  and  _203
REMARK   90  A    between atoms: _203  and  _204
REMARK   91  A    between atoms: _204  and  _205
REMARK   92  A    between atoms: _205  and  _206
REMARK   93  A    between atoms: _206  and  _207
REMARK   94  A    between atoms: _211  and  _213
REMARK   95  A    between atoms: _213  and  _214
REMARK   96  A    between atoms: _213  and  _216
REMARK   97  A    between atoms: _216  and  _217
REMARK   98  A    between atoms: _221  and  ZN_300
REMARK   99  A    between atoms: _222  and  _224
REMARK  100  A    between atoms: _233  and  _234
REMARK  101  A    between atoms: _242  and  _244
REMARK  102  A    between atoms: _244  and  _245
REMARK  103  A    between atoms: _248  and  _250
REMARK  104  A    between atoms: _250  and  _251
REMARK  105  A    between atoms: _250  and  _253
REMARK  106  A    between atoms: _253  and  _254
REMARK  107  A    between atoms: _259  and  _261
REMARK  108  A    between atoms: _261  and  _262
REMARK  109  A    between atoms: _261  and  _264
REMARK  110  A    between atoms: _264  and  _265
REMARK  111  A    between atoms: _267  and  _269
REMARK  112  A    between atoms: _269  and  _270
REMARK  113  A    between atoms: _269  and  _272
REMARK  114  A    between atoms: _272  and  _273
REMARK  115  A    between atoms: _273  and  _274
REMARK  116  A    between atoms: _279  and  _281
REMARK  117  A    between atoms: _281  and  _282
REMARK  118  A    between atoms: _281  and  _284
REMARK  119  A    between atoms: _284  and  _285
REMARK  120  A    between atoms: _285  and  _286
REMARK  121  A    between atoms: _289  and  _291
REMARK  122  A    between atoms: _291  and  _292
REMARK  123  A    between atoms: _291  and  _294
REMARK  124  A    between atoms: _294  and  _295
REMARK  125  A    between atoms: _299  and  ZN_300
REMARK                            x       y       z     vdW  Elec       q    Type
REMARK                         _______ _______ _______ _____ _____    ______ ____
ROOT
ATOM      1  O   HOH     1      76.058  40.368  37.807  0.00  0.00    +0.000 OA
ENDROOT
TORSDOF 0
REMARK  Name = ../refined-set-2016/1ew8/1ew8_pocket.pdb
REMARK  125 active torsions:
REMARK  status: ('A' for Active; 'I' for Inactive)
REMARK    1  A    between atoms: _1  and  _3
REMARK    2  A    between atoms: _3  and  _4
REMARK    3  A    between atoms: _3  and  _6
REMARK    4  A    between atoms: _6  and  _7
REMARK    5  A    between atoms: _7  and  _8
REMARK    6  A    between atoms: _8  and  ZN_301
REMARK    7  A    between atoms: _10  and  _12
REMARK    8  A    between atoms: _12  and  _13
REMARK    9  A    between atoms: _15  and  _17
REMARK   10  A    between atoms: _17  and  _18
REMARK   11  A    between atoms: _17  and  _20
REMARK   12  A    between atoms: _20  and  _21
REMARK   13  A    between atoms: _21  and  _22
REMARK   14  A    between atoms: _24  and  _26
REMARK   15  A    between atoms: _26  and  _27
REMARK   16  A    between atoms: _26  and  _29
REMARK   17  A    between atoms: _29  and  _30
REMARK   18  A    between atoms: _33  and  _35
REMARK   19  A    between atoms: _35  and  _36
REMARK   20  A    between atoms: _35  and  _38
REMARK   21  A    between atoms: _38  and  _39
REMARK   22  A    between atoms: _42  and  _44
REMARK   23  A    between atoms: _44  and  _45
REMARK   24  A    between atoms: _44  and  _47
REMARK   25  A    between atoms: _47  and  _48
REMARK   26  A    between atoms: _50  and  _52
REMARK   27  A    between atoms: _52  and  _53
REMARK   28  A    between atoms: _56  and  _58
REMARK   29  A    between atoms: _58  and  _59
REMARK   30  A    between atoms: _62  and  _64
REMARK   31  A    between atoms: _64  and  _65
REMARK   32  A    between atoms: _64  and  _67
REMARK   33  A    between atoms: _67  and  _68
REMARK   34  A    between atoms: _70  and  _72
REMARK   35  A    between atoms: _72  and  _73
REMARK   36  A    between atoms: _76  and  _78
REMARK   37  A    between atoms: _78  and  _79
REMARK   38  A    between atoms: _78  and  _81
REMARK   39  A    between atoms: _81  and  _82
REMARK   40  A    between atoms: _87  and  _89
REMARK   41  A    between atoms: _89  and  _90
REMARK   42  A    between atoms: _92  and  _94
REMARK   43  A    between atoms: _94  and  _95
REMARK   44  A    between atoms: _98  and  _100
REMARK   45  A    between atoms: _100  and  _101
REMARK   46  A    between atoms: _100  and  _103
REMARK   47  A    between atoms: _103  and  _104
REMARK   48  A    between atoms: _109  and  _110
REMARK   49  A    between atoms: _113  and  _115
REMARK   50  A    between atoms: _115  and  _116
REMARK   51  A    between atoms: _115  and  _118
REMARK   52  A    between atoms: _118  and  _119
REMARK   53  A    between atoms: _123  and  _124
REMARK   54  A    between atoms: _129  and  _131
REMARK   55  A    between atoms: _131  and  _132
REMARK   56  A    between atoms: _131  and  _134
REMARK   57  A    between atoms: _134  and  _135
REMARK   58  A    between atoms: _135  and  _136
REMARK   59  A    between atoms: _136  and  _137
REMARK   60  A    between atoms: _146  and  _148
REMARK   61  A    between atoms: _148  and  _149
REMARK   62  A    between atoms: _148  and  _151
REMARK   63  A    between atoms: _151  and  _152
REMARK   64  A    between atoms: _152  and  _153
REMARK   65  A    between atoms: _153  and  _154
REMARK   66  A    between atoms: _154  and  _155
REMARK   67  A    between atoms: _159  and  _161
REMARK   68  A    between atoms: _161  and  _162
REMARK   69  A    between atoms: _161  and  _164
REMARK   70  A    between atoms: _164  and  _165
REMARK   71  A    between atoms: _170  and  _171
REMARK   72  A    between atoms: _173  and  _175
REMARK   73  A    between atoms: _175  and  _176
REMARK   74  A    between atoms: _175  and  _178
REMARK   75  A    between atoms: _178  and  _179
REMARK   76  A    between atoms: _179  and  _180
REMARK   77  A    between atoms: _180  and  _182
REMARK   78  A    between atoms: _182  and  MG_302
REMARK   79  A    between atoms: _183  and  _185
REMARK   80  A    between atoms: _185  and  _186
REMARK   81  A    between atoms: _189  and  _191
REMARK   82  A    between atoms: _191  and  _192
REMARK   83  A    between atoms: _191  and  _194
REMARK   84  A    between atoms: _194  and  _195
REMARK   85  A    between atoms: _195  and  _196
REMARK   86  A    between atoms: _196  and  ZN_300
REMARK   87  A    between atoms: _198  and  _200
REMARK   88  A    between atoms: _200  and  _201
REMARK   89  A    between atoms: _200  and  _203
REMARK   90  A    between atoms: _203  and  _204
REMARK   91  A    between atoms: _204  and  _205
REMARK   92  A    between atoms: _205  and  _206
REMARK   93  A    between atoms: _206  and  _207
REMARK   94  A    between atoms: _211  and  _213
REMARK   95  A    between atoms: _213  and  _214
REMARK   96  A    between atoms: _213  and  _216
REMARK   97  A    between atoms: _216  and  _217
REMARK   98  A    between atoms: _221  and  ZN_300
REMARK   99  A    between atoms: _222  and  _224
REMARK  100  A    between atoms: _233  and  _234
REMARK  101  A    between atoms: _242  and  _244
REMARK  102  A    between atoms: _244  and  _245
REMARK  103  A    between atoms: _248  and  _250
REMARK  104  A    between atoms: _250  and  _251
REMARK  105  A    between atoms: _250  and  _253
REMARK  106  A    between atoms: _253  and  _254
REMARK  107  A    between atoms: _259  and  _261
REMARK  108  A    between atoms: _261  and  _262
REMARK  109  A    between atoms: _261  and  _264
REMARK  110  A    between atoms: _264  and  _265
REMARK  111  A    between atoms: _267  and  _269
REMARK  112  A    between atoms: _269  and  _270
REMARK  113  A    between atoms: _269  and  _272
REMARK  114  A    between atoms: _272  and  _273
REMARK  115  A    between atoms: _273  and  _274
REMARK  116  A    between atoms: _279  and  _281
REMARK  117  A    between atoms: _281  and  _282
REMARK  118  A    between atoms: _281  and  _284
REMARK  119  A    between atoms: _284  and  _285
REMARK  120  A    between atoms: _285  and  _286
REMARK  121  A    between atoms: _289  and  _291
REMARK  122  A    between atoms: _291  and  _292
REMARK  123  A    between atoms: _291  and  _294
REMARK  124  A    between atoms: _294  and  _295
REMARK  125  A    between atoms: _299  and  ZN_300
REMARK                            x       y       z     vdW  Elec       q    Type
REMARK                         _______ _______ _______ _____ _____    ______ ____
ROOT
ATOM      1  O   HOH     1      72.493  32.416  45.159  0.00  0.00    +0.000 OA
ENDROOT
TORSDOF 0
REMARK  Name = ../refined-set-2016/1ew8/1ew8_pocket.pdb
REMARK  125 active torsions:
REMARK  status: ('A' for Active; 'I' for Inactive)
REMARK    1  A    between atoms: _1  and  _3
REMARK    2  A    between atoms: _3  and  _4
REMARK    3  A    between atoms: _3  and  _6
REMARK    4  A    between atoms: _6  and  _7
REMARK    5  A    between atoms: _7  and  _8
REMARK    6  A    between atoms: _8  and  ZN_301
REMARK    7  A    between atoms: _10  and  _12
REMARK    8  A    between atoms: _12  and  _13
REMARK    9  A    between atoms: _15  and  _17
REMARK   10  A    between atoms: _17  and  _18
REMARK   11  A    between atoms: _17  and  _20
REMARK   12  A    between atoms: _20  and  _21
REMARK   13  A    between atoms: _21  and  _22
REMARK   14  A    between atoms: _24  and  _26
REMARK   15  A    between atoms: _26  and  _27
REMARK   16  A    between atoms: _26  and  _29
REMARK   17  A    between atoms: _29  and  _30
REMARK   18  A    between atoms: _33  and  _35
REMARK   19  A    between atoms: _35  and  _36
REMARK   20  A    between atoms: _35  and  _38
REMARK   21  A    between atoms: _38  and  _39
REMARK   22  A    between atoms: _42  and  _44
REMARK   23  A    between atoms: _44  and  _45
REMARK   24  A    between atoms: _44  and  _47
REMARK   25  A    between atoms: _47  and  _48
REMARK   26  A    between atoms: _50  and  _52
REMARK   27  A    between atoms: _52  and  _53
REMARK   28  A    between atoms: _56  and  _58
REMARK   29  A    between atoms: _58  and  _59
REMARK   30  A    between atoms: _62  and  _64
REMARK   31  A    between atoms: _64  and  _65
REMARK   32  A    between atoms: _64  and  _67
REMARK   33  A    between atoms: _67  and  _68
REMARK   34  A    between atoms: _70  and  _72
REMARK   35  A    between atoms: _72  and  _73
REMARK   36  A    between atoms: _76  and  _78
REMARK   37  A    between atoms: _78  and  _79
REMARK   38  A    between atoms: _78  and  _81
REMARK   39  A    between atoms: _81  and  _82
REMARK   40  A    between atoms: _87  and  _89
REMARK   41  A    between atoms: _89  and  _90
REMARK   42  A    between atoms: _92  and  _94
REMARK   43  A    between atoms: _94  and  _95
REMARK   44  A    between atoms: _98  and  _100
REMARK   45  A    between atoms: _100  and  _101
REMARK   46  A    between atoms: _100  and  _103
REMARK   47  A    between atoms: _103  and  _104
REMARK   48  A    between atoms: _109  and  _110
REMARK   49  A    between atoms: _113  and  _115
REMARK   50  A    between atoms: _115  and  _116
REMARK   51  A    between atoms: _115  and  _118
REMARK   52  A    between atoms: _118  and  _119
REMARK   53  A    between atoms: _123  and  _124
REMARK   54  A    between atoms: _129  and  _131
REMARK   55  A    between atoms: _131  and  _132
REMARK   56  A    between atoms: _131  and  _134
REMARK   57  A    between atoms: _134  and  _135
REMARK   58  A    between atoms: _135  and  _136
REMARK   59  A    between atoms: _136  and  _137
REMARK   60  A    between atoms: _146  and  _148
REMARK   61  A    between atoms: _148  and  _149
REMARK   62  A    between atoms: _148  and  _151
REMARK   63  A    between atoms: _151  and  _152
REMARK   64  A    between atoms: _152  and  _153
REMARK   65  A    between atoms: _153  and  _154
REMARK   66  A    between atoms: _154  and  _155
REMARK   67  A    between atoms: _159  and  _161
REMARK   68  A    between atoms: _161  and  _162
REMARK   69  A    between atoms: _161  and  _164
REMARK   70  A    between atoms: _164  and  _165
REMARK   71  A    between atoms: _170  and  _171
REMARK   72  A    between atoms: _173  and  _175
REMARK   73  A    between atoms: _175  and  _176
REMARK   74  A    between atoms: _175  and  _178
REMARK   75  A    between atoms: _178  and  _179
REMARK   76  A    between atoms: _179  and  _180
REMARK   77  A    between atoms: _180  and  _182
REMARK   78  A    between atoms: _182  and  MG_302
REMARK   79  A    between atoms: _183  and  _185
REMARK   80  A    between atoms: _185  and  _186
REMARK   81  A    between atoms: _189  and  _191
REMARK   82  A    between atoms: _191  and  _192
REMARK   83  A    between atoms: _191  and  _194
REMARK   84  A    between atoms: _194  and  _195
REMARK   85  A    between atoms: _195  and  _196
REMARK   86  A    between atoms: _196  and  ZN_300
REMARK   87  A    between atoms: _198  and  _200
REMARK   88  A    between atoms: _200  and  _201
REMARK   89  A    between atoms: _200  and  _203
REMARK   90  A    between atoms: _203  and  _204
REMARK   91  A    between atoms: _204  and  _205
REMARK   92  A    between atoms: _205  and  _206
REMARK   93  A    between atoms: _206  and  _207
REMARK   94  A    between atoms: _211  and  _213
REMARK   95  A    between atoms: _213  and  _214
REMARK   96  A    between atoms: _213  and  _216
REMARK   97  A    between atoms: _216  and  _217
REMARK   98  A    between atoms: _221  and  ZN_300
REMARK   99  A    between atoms: _222  and  _224
REMARK  100  A    between atoms: _233  and  _234
REMARK  101  A    between atoms: _242  and  _244
REMARK  102  A    between atoms: _244  and  _245
REMARK  103  A    between atoms: _248  and  _250
REMARK  104  A    between atoms: _250  and  _251
REMARK  105  A    between atoms: _250  and  _253
REMARK  106  A    between atoms: _253  and  _254
REMARK  107  A    between atoms: _259  and  _261
REMARK  108  A    between atoms: _261  and  _262
REMARK  109  A    between atoms: _261  and  _264
REMARK  110  A    between atoms: _264  and  _265
REMARK  111  A    between atoms: _267  and  _269
REMARK  112  A    between atoms: _269  and  _270
REMARK  113  A    between atoms: _269  and  _272
REMARK  114  A    between atoms: _272  and  _273
REMARK  115  A    between atoms: _273  and  _274
REMARK  116  A    between atoms: _279  and  _281
REMARK  117  A    between atoms: _281  and  _282
REMARK  118  A    between atoms: _281  and  _284
REMARK  119  A    between atoms: _284  and  _285
REMARK  120  A    between atoms: _285  and  _286
REMARK  121  A    between atoms: _289  and  _291
REMARK  122  A    between atoms: _291  and  _292
REMARK  123  A    between atoms: _291  and  _294
REMARK  124  A    between atoms: _294  and  _295
REMARK  125  A    between atoms: _299  and  ZN_300
REMARK                            x       y       z     vdW  Elec       q    Type
REMARK                         _______ _______ _______ _____ _____    ______ ____
ROOT
ATOM      1  O   HOH     1      70.379  41.500  47.770  0.00  0.00    +0.000 OA
ENDROOT
TORSDOF 0
REMARK  Name = ../refined-set-2016/1ew8/1ew8_pocket.pdb
REMARK  125 active torsions:
REMARK  status: ('A' for Active; 'I' for Inactive)
REMARK    1  A    between atoms: _1  and  _3
REMARK    2  A    between atoms: _3  and  _4
REMARK    3  A    between atoms: _3  and  _6
REMARK    4  A    between atoms: _6  and  _7
REMARK    5  A    between atoms: _7  and  _8
REMARK    6  A    between atoms: _8  and  ZN_301
REMARK    7  A    between atoms: _10  and  _12
REMARK    8  A    between atoms: _12  and  _13
REMARK    9  A    between atoms: _15  and  _17
REMARK   10  A    between atoms: _17  and  _18
REMARK   11  A    between atoms: _17  and  _20
REMARK   12  A    between atoms: _20  and  _21
REMARK   13  A    between atoms: _21  and  _22
REMARK   14  A    between atoms: _24  and  _26
REMARK   15  A    between atoms: _26  and  _27
REMARK   16  A    between atoms: _26  and  _29
REMARK   17  A    between atoms: _29  and  _30
REMARK   18  A    between atoms: _33  and  _35
REMARK   19  A    between atoms: _35  and  _36
REMARK   20  A    between atoms: _35  and  _38
REMARK   21  A    between atoms: _38  and  _39
REMARK   22  A    between atoms: _42  and  _44
REMARK   23  A    between atoms: _44  and  _45
REMARK   24  A    between atoms: _44  and  _47
REMARK   25  A    between atoms: _47  and  _48
REMARK   26  A    between atoms: _50  and  _52
REMARK   27  A    between atoms: _52  and  _53
REMARK   28  A    between atoms: _56  and  _58
REMARK   29  A    between atoms: _58  and  _59
REMARK   30  A    between atoms: _62  and  _64
REMARK   31  A    between atoms: _64  and  _65
REMARK   32  A    between atoms: _64  and  _67
REMARK   33  A    between atoms: _67  and  _68
REMARK   34  A    between atoms: _70  and  _72
REMARK   35  A    between atoms: _72  and  _73
REMARK   36  A    between atoms: _76  and  _78
REMARK   37  A    between atoms: _78  and  _79
REMARK   38  A    between atoms: _78  and  _81
REMARK   39  A    between atoms: _81  and  _82
REMARK   40  A    between atoms: _87  and  _89
REMARK   41  A    between atoms: _89  and  _90
REMARK   42  A    between atoms: _92  and  _94
REMARK   43  A    between atoms: _94  and  _95
REMARK   44  A    between atoms: _98  and  _100
REMARK   45  A    between atoms: _100  and  _101
REMARK   46  A    between atoms: _100  and  _103
REMARK   47  A    between atoms: _103  and  _104
REMARK   48  A    between atoms: _109  and  _110
REMARK   49  A    between atoms: _113  and  _115
REMARK   50  A    between atoms: _115  and  _116
REMARK   51  A    between atoms: _115  and  _118
REMARK   52  A    between atoms: _118  and  _119
REMARK   53  A    between atoms: _123  and  _124
REMARK   54  A    between atoms: _129  and  _131
REMARK   55  A    between atoms: _131  and  _132
REMARK   56  A    between atoms: _131  and  _134
REMARK   57  A    between atoms: _134  and  _135
REMARK   58  A    between atoms: _135  and  _136
REMARK   59  A    between atoms: _136  and  _137
REMARK   60  A    between atoms: _146  and  _148
REMARK   61  A    between atoms: _148  and  _149
REMARK   62  A    between atoms: _148  and  _151
REMARK   63  A    between atoms: _151  and  _152
REMARK   64  A    between atoms: _152  and  _153
REMARK   65  A    between atoms: _153  and  _154
REMARK   66  A    between atoms: _154  and  _155
REMARK   67  A    between atoms: _159  and  _161
REMARK   68  A    between atoms: _161  and  _162
REMARK   69  A    between atoms: _161  and  _164
REMARK   70  A    between atoms: _164  and  _165
REMARK   71  A    between atoms: _170  and  _171
REMARK   72  A    between atoms: _173  and  _175
REMARK   73  A    between atoms: _175  and  _176
REMARK   74  A    between atoms: _175  and  _178
REMARK   75  A    between atoms: _178  and  _179
REMARK   76  A    between atoms: _179  and  _180
REMARK   77  A    between atoms: _180  and  _182
REMARK   78  A    between atoms: _182  and  MG_302
REMARK   79  A    between atoms: _183  and  _185
REMARK   80  A    between atoms: _185  and  _186
REMARK   81  A    between atoms: _189  and  _191
REMARK   82  A    between atoms: _191  and  _192
REMARK   83  A    between atoms: _191  and  _194
REMARK   84  A    between atoms: _194  and  _195
REMARK   85  A    between atoms: _195  and  _196
REMARK   86  A    between atoms: _196  and  ZN_300
REMARK   87  A    between atoms: _198  and  _200
REMARK   88  A    between atoms: _200  and  _201
REMARK   89  A    between atoms: _200  and  _203
REMARK   90  A    between atoms: _203  and  _204
REMARK   91  A    between atoms: _204  and  _205
REMARK   92  A    between atoms: _205  and  _206
REMARK   93  A    between atoms: _206  and  _207
REMARK   94  A    between atoms: _211  and  _213
REMARK   95  A    between atoms: _213  and  _214
REMARK   96  A    between atoms: _213  and  _216
REMARK   97  A    between atoms: _216  and  _217
REMARK   98  A    between atoms: _221  and  ZN_300
REMARK   99  A    between atoms: _222  and  _224
REMARK  100  A    between atoms: _233  and  _234
REMARK  101  A    between atoms: _242  and  _244
REMARK  102  A    between atoms: _244  and  _245
REMARK  103  A    between atoms: _248  and  _250
REMARK  104  A    between atoms: _250  and  _251
REMARK  105  A    between atoms: _250  and  _253
REMARK  106  A    between atoms: _253  and  _254
REMARK  107  A    between atoms: _259  and  _261
REMARK  108  A    between atoms: _261  and  _262
REMARK  109  A    between atoms: _261  and  _264
REMARK  110  A    between atoms: _264  and  _265
REMARK  111  A    between atoms: _267  and  _269
REMARK  112  A    between atoms: _269  and  _270
REMARK  113  A    between atoms: _269  and  _272
REMARK  114  A    between atoms: _272  and  _273
REMARK  115  A    between atoms: _273  and  _274
REMARK  116  A    between atoms: _279  and  _281
REMARK  117  A    between atoms: _281  and  _282
REMARK  118  A    between atoms: _281  and  _284
REMARK  119  A    between atoms: _284  and  _285
REMARK  120  A    between atoms: _285  and  _286
REMARK  121  A    between atoms: _289  and  _291
REMARK  122  A    between atoms: _291  and  _292
REMARK  123  A    between atoms: _291  and  _294
REMARK  124  A    between atoms: _294  and  _295
REMARK  125  A    between atoms: _299  and  ZN_300
REMARK                            x       y       z     vdW  Elec       q    Type
REMARK                         _______ _______ _______ _____ _____    ______ ____
ROOT
ATOM      1  O   HOH     1      70.730  33.869  48.138  0.00  0.00    +0.000 OA
ENDROOT
TORSDOF 0
REMARK  Name = ../refined-set-2016/1ew8/1ew8_pocket.pdb
REMARK  125 active torsions:
REMARK  status: ('A' for Active; 'I' for Inactive)
REMARK    1  A    between atoms: _1  and  _3
REMARK    2  A    between atoms: _3  and  _4
REMARK    3  A    between atoms: _3  and  _6
REMARK    4  A    between atoms: _6  and  _7
REMARK    5  A    between atoms: _7  and  _8
REMARK    6  A    between atoms: _8  and  ZN_301
REMARK    7  A    between atoms: _10  and  _12
REMARK    8  A    between atoms: _12  and  _13
REMARK    9  A    between atoms: _15  and  _17
REMARK   10  A    between atoms: _17  and  _18
REMARK   11  A    between atoms: _17  and  _20
REMARK   12  A    between atoms: _20  and  _21
REMARK   13  A    between atoms: _21  and  _22
REMARK   14  A    between atoms: _24  and  _26
REMARK   15  A    between atoms: _26  and  _27
REMARK   16  A    between atoms: _26  and  _29
REMARK   17  A    between atoms: _29  and  _30
REMARK   18  A    between atoms: _33  and  _35
REMARK   19  A    between atoms: _35  and  _36
REMARK   20  A    between atoms: _35  and  _38
REMARK   21  A    between atoms: _38  and  _39
REMARK   22  A    between atoms: _42  and  _44
REMARK   23  A    between atoms: _44  and  _45
REMARK   24  A    between atoms: _44  and  _47
REMARK   25  A    between atoms: _47  and  _48
REMARK   26  A    between atoms: _50  and  _52
REMARK   27  A    between atoms: _52  and  _53
REMARK   28  A    between atoms: _56  and  _58
REMARK   29  A    between atoms: _58  and  _59
REMARK   30  A    between atoms: _62  and  _64
REMARK   31  A    between atoms: _64  and  _65
REMARK   32  A    between atoms: _64  and  _67
REMARK   33  A    between atoms: _67  and  _68
REMARK   34  A    between atoms: _70  and  _72
REMARK   35  A    between atoms: _72  and  _73
REMARK   36  A    between atoms: _76  and  _78
REMARK   37  A    between atoms: _78  and  _79
REMARK   38  A    between atoms: _78  and  _81
REMARK   39  A    between atoms: _81  and  _82
REMARK   40  A    between atoms: _87  and  _89
REMARK   41  A    between atoms: _89  and  _90
REMARK   42  A    between atoms: _92  and  _94
REMARK   43  A    between atoms: _94  and  _95
REMARK   44  A    between atoms: _98  and  _100
REMARK   45  A    between atoms: _100  and  _101
REMARK   46  A    between atoms: _100  and  _103
REMARK   47  A    between atoms: _103  and  _104
REMARK   48  A    between atoms: _109  and  _110
REMARK   49  A    between atoms: _113  and  _115
REMARK   50  A    between atoms: _115  and  _116
REMARK   51  A    between atoms: _115  and  _118
REMARK   52  A    between atoms: _118  and  _119
REMARK   53  A    between atoms: _123  and  _124
REMARK   54  A    between atoms: _129  and  _131
REMARK   55  A    between atoms: _131  and  _132
REMARK   56  A    between atoms: _131  and  _134
REMARK   57  A    between atoms: _134  and  _135
REMARK   58  A    between atoms: _135  and  _136
REMARK   59  A    between atoms: _136  and  _137
REMARK   60  A    between atoms: _146  and  _148
REMARK   61  A    between atoms: _148  and  _149
REMARK   62  A    between atoms: _148  and  _151
REMARK   63  A    between atoms: _151  and  _152
REMARK   64  A    between atoms: _152  and  _153
REMARK   65  A    between atoms: _153  and  _154
REMARK   66  A    between atoms: _154  and  _155
REMARK   67  A    between atoms: _159  and  _161
REMARK   68  A    between atoms: _161  and  _162
REMARK   69  A    between atoms: _161  and  _164
REMARK   70  A    between atoms: _164  and  _165
REMARK   71  A    between atoms: _170  and  _171
REMARK   72  A    between atoms: _173  and  _175
REMARK   73  A    between atoms: _175  and  _176
REMARK   74  A    between atoms: _175  and  _178
REMARK   75  A    between atoms: _178  and  _179
REMARK   76  A    between atoms: _179  and  _180
REMARK   77  A    between atoms: _180  and  _182
REMARK   78  A    between atoms: _182  and  MG_302
REMARK   79  A    between atoms: _183  and  _185
REMARK   80  A    between atoms: _185  and  _186
REMARK   81  A    between atoms: _189  and  _191
REMARK   82  A    between atoms: _191  and  _192
REMARK   83  A    between atoms: _191  and  _194
REMARK   84  A    between atoms: _194  and  _195
REMARK   85  A    between atoms: _195  and  _196
REMARK   86  A    between atoms: _196  and  ZN_300
REMARK   87  A    between atoms: _198  and  _200
REMARK   88  A    between atoms: _200  and  _201
REMARK   89  A    between atoms: _200  and  _203
REMARK   90  A    between atoms: _203  and  _204
REMARK   91  A    between atoms: _204  and  _205
REMARK   92  A    between atoms: _205  and  _206
REMARK   93  A    between atoms: _206  and  _207
REMARK   94  A    between atoms: _211  and  _213
REMARK   95  A    between atoms: _213  and  _214
REMARK   96  A    between atoms: _213  and  _216
REMARK   97  A    between atoms: _216  and  _217
REMARK   98  A    between atoms: _221  and  ZN_300
REMARK   99  A    between atoms: _222  and  _224
REMARK  100  A    between atoms: _233  and  _234
REMARK  101  A    between atoms: _242  and  _244
REMARK  102  A    between atoms: _244  and  _245
REMARK  103  A    between atoms: _248  and  _250
REMARK  104  A    between atoms: _250  and  _251
REMARK  105  A    between atoms: _250  and  _253
REMARK  106  A    between atoms: _253  and  _254
REMARK  107  A    between atoms: _259  and  _261
REMARK  108  A    between atoms: _261  and  _262
REMARK  109  A    between atoms: _261  and  _264
REMARK  110  A    between atoms: _264  and  _265
REMARK  111  A    between atoms: _267  and  _269
REMARK  112  A    between atoms: _269  and  _270
REMARK  113  A    between atoms: _269  and  _272
REMARK  114  A    between atoms: _272  and  _273
REMARK  115  A    between atoms: _273  and  _274
REMARK  116  A    between atoms: _279  and  _281
REMARK  117  A    between atoms: _281  and  _282
REMARK  118  A    between atoms: _281  and  _284
REMARK  119  A    between atoms: _284  and  _285
REMARK  120  A    between atoms: _285  and  _286
REMARK  121  A    between atoms: _289  and  _291
REMARK  122  A    between atoms: _291  and  _292
REMARK  123  A    between atoms: _291  and  _294
REMARK  124  A    between atoms: _294  and  _295
REMARK  125  A    between atoms: _299  and  ZN_300
REMARK                            x       y       z     vdW  Elec       q    Type
REMARK                         _______ _______ _______ _____ _____    ______ ____
ROOT
ATOM      1  O   HOH     1      75.450  30.777  44.373  0.00  0.00    +0.000 OA
ENDROOT
TORSDOF 0
