REMARK  Name = ../refined-set-2016/4crf/4crf_pocket.pdb
REMARK  239 active torsions:
REMARK  status: ('A' for Active; 'I' for Inactive)
REMARK    1  A    between atoms: _1  and  _5
REMARK    2  A    between atoms: _5  and  _6
REMARK    3  A    between atoms: _5  and  _8
REMARK    4  A    between atoms: _8  and  _9
REMARK    5  A    between atoms: _12  and  _14
REMARK    6  A    between atoms: _14  and  _15
REMARK    7  A    between atoms: _14  and  _17
REMARK    8  A    between atoms: _20  and  _22
REMARK    9  A    between atoms: _22  and  _23
REMARK   10  A    between atoms: _22  and  _25
REMARK   11  A    between atoms: _25  and  _26
REMARK   12  A    between atoms: _29  and  _31
REMARK   13  A    between atoms: _31  and  _32
REMARK   14  A    between atoms: _31  and  _34
REMARK   15  A    between atoms: _34  and  _35
REMARK   16  A    between atoms: _38  and  _40
REMARK   17  A    between atoms: _40  and  _41
REMARK   18  A    between atoms: _40  and  _43
REMARK   19  A    between atoms: _43  and  _44
REMARK   20  A    between atoms: _47  and  _49
REMARK   21  A    between atoms: _49  and  _50
REMARK   22  A    between atoms: _49  and  _52
REMARK   23  A    between atoms: _52  and  _53
REMARK   24  A    between atoms: _56  and  _58
REMARK   25  A    between atoms: _58  and  _59
REMARK   26  A    between atoms: _58  and  _61
REMARK   27  A    between atoms: _61  and  _62
REMARK   28  A    between atoms: _62  and  _63
REMARK   29  A    between atoms: _68  and  _70
REMARK   30  A    between atoms: _70  and  _71
REMARK   31  A    between atoms: _70  and  _73
REMARK   32  A    between atoms: _73  and  _74
REMARK   33  A    between atoms: _74  and  _75
REMARK   34  A    between atoms: _75  and  _76
REMARK   35  A    between atoms: _85  and  _87
REMARK   36  A    between atoms: _87  and  _88
REMARK   37  A    between atoms: _87  and  _90
REMARK   38  A    between atoms: _90  and  _91
REMARK   39  A    between atoms: _96  and  _98
REMARK   40  A    between atoms: _98  and  _99
REMARK   41  A    between atoms: _98  and  _101
REMARK   42  A    between atoms: _101  and  _102
REMARK   43  A    between atoms: _105  and  _107
REMARK   44  A    between atoms: _107  and  _108
REMARK   45  A    between atoms: _107  and  _110
REMARK   46  A    between atoms: _110  and  _111
REMARK   47  A    between atoms: _111  and  _146
REMARK   48  A    between atoms: _112  and  _114
REMARK   49  A    between atoms: _114  and  _115
REMARK   50  A    between atoms: _117  and  _119
REMARK   51  A    between atoms: _119  and  _120
REMARK   52  A    between atoms: _123  and  _125
REMARK   53  A    between atoms: _125  and  _126
REMARK   54  A    between atoms: _129  and  _131
REMARK   55  A    between atoms: _131  and  _132
REMARK   56  A    between atoms: _131  and  _134
REMARK   57  A    between atoms: _134  and  _135
REMARK   58  A    between atoms: _140  and  _142
REMARK   59  A    between atoms: _142  and  _143
REMARK   60  A    between atoms: _142  and  _145
REMARK   61  A    between atoms: _145  and  _146
REMARK   62  A    between atoms: _147  and  _149
REMARK   63  A    between atoms: _149  and  _150
REMARK   64  A    between atoms: _149  and  _152
REMARK   65  A    between atoms: _152  and  _153
REMARK   66  A    between atoms: _159  and  _161
REMARK   67  A    between atoms: _161  and  _162
REMARK   68  A    between atoms: _161  and  _164
REMARK   69  A    between atoms: _164  and  _165
REMARK   70  A    between atoms: _170  and  _171
REMARK   71  A    between atoms: _173  and  _175
REMARK   72  A    between atoms: _175  and  _176
REMARK   73  A    between atoms: _178  and  _180
REMARK   74  A    between atoms: _180  and  _181
REMARK   75  A    between atoms: _180  and  _183
REMARK   76  A    between atoms: _186  and  _188
REMARK   77  A    between atoms: _188  and  _189
REMARK   78  A    between atoms: _192  and  _194
REMARK   79  A    between atoms: _194  and  _195
REMARK   80  A    between atoms: _194  and  _197
REMARK   81  A    between atoms: _197  and  _198
REMARK   82  A    between atoms: _201  and  _203
REMARK   83  A    between atoms: _203  and  _204
REMARK   84  A    between atoms: _203  and  _206
REMARK   85  A    between atoms: _209  and  _211
REMARK   86  A    between atoms: _211  and  _212
REMARK   87  A    between atoms: _211  and  _214
REMARK   88  A    between atoms: _214  and  _215
REMARK   89  A    between atoms: _225  and  _227
REMARK   90  A    between atoms: _227  and  _228
REMARK   91  A    between atoms: _230  and  _232
REMARK   92  A    between atoms: _232  and  _233
REMARK   93  A    between atoms: _232  and  _235
REMARK   94  A    between atoms: _235  and  _236
REMARK   95  A    between atoms: _241  and  _242
REMARK   96  A    between atoms: _244  and  _246
REMARK   97  A    between atoms: _246  and  _247
REMARK   98  A    between atoms: _246  and  _249
REMARK   99  A    between atoms: _249  and  _250
REMARK  100  A    between atoms: _250  and  _251
REMARK  101  A    between atoms: _251  and  _252
REMARK  102  A    between atoms: _252  and  _253
REMARK  103  A    between atoms: _257  and  _259
REMARK  104  A    between atoms: _259  and  _260
REMARK  105  A    between atoms: _259  and  _262
REMARK  106  A    between atoms: _262  and  _263
REMARK  107  A    between atoms: _266  and  _268
REMARK  108  A    between atoms: _268  and  _269
REMARK  109  A    between atoms: _268  and  _271
REMARK  110  A    between atoms: _271  and  _272
REMARK  111  A    between atoms: _272  and  _273
REMARK  112  A    between atoms: _273  and  _274
REMARK  113  A    between atoms: _283  and  _285
REMARK  114  A    between atoms: _285  and  _286
REMARK  115  A    between atoms: _285  and  _288
REMARK  116  A    between atoms: _288  and  _289
REMARK  117  A    between atoms: _292  and  _294
REMARK  118  A    between atoms: _294  and  _295
REMARK  119  A    between atoms: _294  and  _297
REMARK  120  A    between atoms: _297  and  _298
REMARK  121  A    between atoms: _298  and  _299
REMARK  122  A    between atoms: _299  and  _300
REMARK  123  A    between atoms: _300  and  _301
REMARK  124  A    between atoms: _305  and  _307
REMARK  125  A    between atoms: _307  and  _308
REMARK  126  A    between atoms: _307  and  _310
REMARK  127  A    between atoms: _310  and  _311
REMARK  128  A    between atoms: _314  and  _316
REMARK  129  A    between atoms: _316  and  _317
REMARK  130  A    between atoms: _316  and  _319
REMARK  131  A    between atoms: _319  and  _320
REMARK  132  A    between atoms: _320  and  _321
REMARK  133  A    between atoms: _326  and  _328
REMARK  134  A    between atoms: _328  and  _329
REMARK  135  A    between atoms: _328  and  _331
REMARK  136  A    between atoms: _331  and  _332
REMARK  137  A    between atoms: _335  and  _337
REMARK  138  A    between atoms: _337  and  _338
REMARK  139  A    between atoms: _337  and  _340
REMARK  140  A    between atoms: _340  and  _341
REMARK  141  A    between atoms: _346  and  _347
REMARK  142  A    between atoms: _349  and  _351
REMARK  143  A    between atoms: _351  and  _352
REMARK  144  A    between atoms: _351  and  _354
REMARK  145  A    between atoms: _354  and  _355
REMARK  146  A    between atoms: _358  and  _360
REMARK  147  A    between atoms: _360  and  _361
REMARK  148  A    between atoms: _360  and  _363
REMARK  149  A    between atoms: _365  and  _367
REMARK  150  A    between atoms: _367  and  _368
REMARK  151  A    between atoms: _371  and  _373
REMARK  152  A    between atoms: _373  and  _374
REMARK  153  A    between atoms: _373  and  _376
REMARK  154  A    between atoms: _376  and  _377
REMARK  155  A    between atoms: _380  and  _382
REMARK  156  A    between atoms: _382  and  _383
REMARK  157  A    between atoms: _386  and  _388
REMARK  158  A    between atoms: _388  and  _389
REMARK  159  A    between atoms: _388  and  _391
REMARK  160  A    between atoms: _391  and  _392
REMARK  161  A    between atoms: _392  and  _506
REMARK  162  A    between atoms: _393  and  _395
REMARK  163  A    between atoms: _395  and  _396
REMARK  164  A    between atoms: _395  and  _398
REMARK  165  A    between atoms: _398  and  _399
REMARK  166  A    between atoms: _399  and  _400
REMARK  167  A    between atoms: _400  and  _401
REMARK  168  A    between atoms: _401  and  _402
REMARK  169  A    between atoms: _406  and  _408
REMARK  170  A    between atoms: _408  and  _409
REMARK  171  A    between atoms: _411  and  _413
REMARK  172  A    between atoms: _413  and  _414
REMARK  173  A    between atoms: _413  and  _416
REMARK  174  A    between atoms: _416  and  _417
REMARK  175  A    between atoms: _420  and  _422
REMARK  176  A    between atoms: _422  and  _423
REMARK  177  A    between atoms: _422  and  _425
REMARK  178  A    between atoms: _425  and  _426
REMARK  179  A    between atoms: _428  and  _430
REMARK  180  A    between atoms: _430  and  _431
REMARK  181  A    between atoms: _433  and  _435
REMARK  182  A    between atoms: _435  and  _436
REMARK  183  A    between atoms: _438  and  _440
REMARK  184  A    between atoms: _440  and  _441
REMARK  185  A    between atoms: _440  and  _443
REMARK  186  A    between atoms: _443  and  _444
REMARK  187  A    between atoms: _447  and  _449
REMARK  188  A    between atoms: _449  and  _450
REMARK  189  A    between atoms: _449  and  _452
REMARK  190  A    between atoms: _452  and  _453
REMARK  191  A    between atoms: _456  and  _458
REMARK  192  A    between atoms: _458  and  _459
REMARK  193  A    between atoms: _458  and  _461
REMARK  194  A    between atoms: _461  and  _462
REMARK  195  A    between atoms: _464  and  _466
REMARK  196  A    between atoms: _466  and  _467
REMARK  197  A    between atoms: _466  and  _469
REMARK  198  A    between atoms: _469  and  _470
REMARK  199  A    between atoms: _480  and  _482
REMARK  200  A    between atoms: _482  and  _483
REMARK  201  A    between atoms: _485  and  _487
REMARK  202  A    between atoms: _487  and  _488
REMARK  203  A    between atoms: _487  and  _490
REMARK  204  A    between atoms: _490  and  _491
REMARK  205  A    between atoms: _491  and  _492
REMARK  206  A    between atoms: _495  and  _497
REMARK  207  A    between atoms: _497  and  _498
REMARK  208  A    between atoms: _500  and  _502
REMARK  209  A    between atoms: _502  and  _503
REMARK  210  A    between atoms: _502  and  _505
REMARK  211  A    between atoms: _505  and  _506
REMARK  212  A    between atoms: _507  and  _509
REMARK  213  A    between atoms: _509  and  _510
REMARK  214  A    between atoms: _513  and  _515
REMARK  215  A    between atoms: _515  and  _516
REMARK  216  A    between atoms: _515  and  _518
REMARK  217  A    between atoms: _518  and  _519
REMARK  218  A    between atoms: _519  and  _520
REMARK  219  A    between atoms: _525  and  _527
REMARK  220  A    between atoms: _527  and  _528
REMARK  221  A    between atoms: _527  and  _530
REMARK  222  A    between atoms: _530  and  _531
REMARK  223  A    between atoms: _531  and  _532
REMARK  224  A    between atoms: _532  and  _533
REMARK  225  A    between atoms: _543  and  _544
REMARK  226  A    between atoms: _549  and  _551
REMARK  227  A    between atoms: _551  and  _552
REMARK  228  A    between atoms: _554  and  _556
REMARK  229  A    between atoms: _556  and  _557
REMARK  230  A    between atoms: _556  and  _559
REMARK  231  A    between atoms: _562  and  _564
REMARK  232  A    between atoms: _564  and  _565
REMARK  233  A    between atoms: _564  and  _567
REMARK  234  A    between atoms: _567  and  _568
REMARK  235  A    between atoms: _573  and  _574
REMARK  236  A    between atoms: _576  and  _578
REMARK  237  A    between atoms: _578  and  _579
REMARK  238  A    between atoms: _578  and  _581
REMARK  239  A    between atoms: _581  and  _582
REMARK                            x       y       z     vdW  Elec       q    Type
REMARK                         _______ _______ _______ _____ _____    ______ ____
ROOT
ATOM      1  C   ILE A   1      47.975  19.466   2.140  0.00  0.00    +0.202 C 
ATOM      2  N   VAL A   2      47.811  18.321   2.805  0.00  0.00    -0.301 N 
ATOM      3  H   VAL A   2      47.406  18.345   3.763  0.00  0.00    +0.150 HD
ATOM      4  O   ILE A   1      48.476  19.516   1.031  0.00  0.00    -0.277 OA
ENDROOT
BRANCH   1   5
ATOM      5  CA  ILE A   1      47.485  20.744   2.822  0.00  0.00    +0.013 C 
BRANCH   5   6
ATOM      6  N   ILE A   1      48.598  21.754   2.899  0.00  0.00    +0.387 N 
ATOM      7  H1  ILE A   1      49.387  21.357   3.447  0.00  0.00    -0.089 HD
ATOM      8  H2  ILE A   1      48.250  22.617   3.365  0.00  0.00    -0.089 HD
ATOM      9  H3  ILE A   1      48.923  21.984   1.938  0.00  0.00    -0.089 HD
ENDBRANCH   5   6
BRANCH   5  10
ATOM     10  CB  ILE A   1      46.259  21.277   2.034  0.00  0.00    -0.011 C 
ATOM     11  CG2 ILE A   1      45.137  20.228   1.964  0.00  0.00    -0.002 C 
BRANCH  10  12
ATOM     12  CG1 ILE A   1      45.724  22.568   2.644  0.00  0.00    -0.002 C 
ATOM     13  CD1 ILE A   1      44.982  22.434   3.958  0.00  0.00    -0.000 C 
ENDBRANCH  10  12
ENDBRANCH   5  10
ENDBRANCH   1   5
BRANCH   2  14
ATOM     14  CA  VAL A   2      48.186  17.032   2.222  0.00  0.00    +0.137 C 
BRANCH  14  15
ATOM     15  CB  VAL A   2      48.789  16.063   3.262  0.00  0.00    +0.026 C 
ATOM     16  CG2 VAL A   2      49.987  16.700   3.929  0.00  0.00    +0.002 C 
ATOM     17  CG1 VAL A   2      49.176  14.727   2.603  0.00  0.00    +0.002 C 
ENDBRANCH  14  15
BRANCH  14  18
ATOM     18  C   VAL A   2      46.974  16.338   1.608  0.00  0.00    +0.227 C 
ATOM     19  O   VAL A   2      45.924  16.280   2.225  0.00  0.00    -0.286 OA
ENDBRANCH  14  18
ENDBRANCH   2  14
TORSDOF 7
REMARK  Name = ../refined-set-2016/4crf/4crf_pocket.pdb
REMARK  239 active torsions:
REMARK  status: ('A' for Active; 'I' for Inactive)
REMARK    1  A    between atoms: _1  and  _5
REMARK    2  A    between atoms: _5  and  _6
REMARK    3  A    between atoms: _5  and  _8
REMARK    4  A    between atoms: _8  and  _9
REMARK    5  A    between atoms: _12  and  _14
REMARK    6  A    between atoms: _14  and  _15
REMARK    7  A    between atoms: _14  and  _17
REMARK    8  A    between atoms: _20  and  _22
REMARK    9  A    between atoms: _22  and  _23
REMARK   10  A    between atoms: _22  and  _25
REMARK   11  A    between atoms: _25  and  _26
REMARK   12  A    between atoms: _29  and  _31
REMARK   13  A    between atoms: _31  and  _32
REMARK   14  A    between atoms: _31  and  _34
REMARK   15  A    between atoms: _34  and  _35
REMARK   16  A    between atoms: _38  and  _40
REMARK   17  A    between atoms: _40  and  _41
REMARK   18  A    between atoms: _40  and  _43
REMARK   19  A    between atoms: _43  and  _44
REMARK   20  A    between atoms: _47  and  _49
REMARK   21  A    between atoms: _49  and  _50
REMARK   22  A    between atoms: _49  and  _52
REMARK   23  A    between atoms: _52  and  _53
REMARK   24  A    between atoms: _56  and  _58
REMARK   25  A    between atoms: _58  and  _59
REMARK   26  A    between atoms: _58  and  _61
REMARK   27  A    between atoms: _61  and  _62
REMARK   28  A    between atoms: _62  and  _63
REMARK   29  A    between atoms: _68  and  _70
REMARK   30  A    between atoms: _70  and  _71
REMARK   31  A    between atoms: _70  and  _73
REMARK   32  A    between atoms: _73  and  _74
REMARK   33  A    between atoms: _74  and  _75
REMARK   34  A    between atoms: _75  and  _76
REMARK   35  A    between atoms: _85  and  _87
REMARK   36  A    between atoms: _87  and  _88
REMARK   37  A    between atoms: _87  and  _90
REMARK   38  A    between atoms: _90  and  _91
REMARK   39  A    between atoms: _96  and  _98
REMARK   40  A    between atoms: _98  and  _99
REMARK   41  A    between atoms: _98  and  _101
REMARK   42  A    between atoms: _101  and  _102
REMARK   43  A    between atoms: _105  and  _107
REMARK   44  A    between atoms: _107  and  _108
REMARK   45  A    between atoms: _107  and  _110
REMARK   46  A    between atoms: _110  and  _111
REMARK   47  A    between atoms: _111  and  _146
REMARK   48  A    between atoms: _112  and  _114
REMARK   49  A    between atoms: _114  and  _115
REMARK   50  A    between atoms: _117  and  _119
REMARK   51  A    between atoms: _119  and  _120
REMARK   52  A    between atoms: _123  and  _125
REMARK   53  A    between atoms: _125  and  _126
REMARK   54  A    between atoms: _129  and  _131
REMARK   55  A    between atoms: _131  and  _132
REMARK   56  A    between atoms: _131  and  _134
REMARK   57  A    between atoms: _134  and  _135
REMARK   58  A    between atoms: _140  and  _142
REMARK   59  A    between atoms: _142  and  _143
REMARK   60  A    between atoms: _142  and  _145
REMARK   61  A    between atoms: _145  and  _146
REMARK   62  A    between atoms: _147  and  _149
REMARK   63  A    between atoms: _149  and  _150
REMARK   64  A    between atoms: _149  and  _152
REMARK   65  A    between atoms: _152  and  _153
REMARK   66  A    between atoms: _159  and  _161
REMARK   67  A    between atoms: _161  and  _162
REMARK   68  A    between atoms: _161  and  _164
REMARK   69  A    between atoms: _164  and  _165
REMARK   70  A    between atoms: _170  and  _171
REMARK   71  A    between atoms: _173  and  _175
REMARK   72  A    between atoms: _175  and  _176
REMARK   73  A    between atoms: _178  and  _180
REMARK   74  A    between atoms: _180  and  _181
REMARK   75  A    between atoms: _180  and  _183
REMARK   76  A    between atoms: _186  and  _188
REMARK   77  A    between atoms: _188  and  _189
REMARK   78  A    between atoms: _192  and  _194
REMARK   79  A    between atoms: _194  and  _195
REMARK   80  A    between atoms: _194  and  _197
REMARK   81  A    between atoms: _197  and  _198
REMARK   82  A    between atoms: _201  and  _203
REMARK   83  A    between atoms: _203  and  _204
REMARK   84  A    between atoms: _203  and  _206
REMARK   85  A    between atoms: _209  and  _211
REMARK   86  A    between atoms: _211  and  _212
REMARK   87  A    between atoms: _211  and  _214
REMARK   88  A    between atoms: _214  and  _215
REMARK   89  A    between atoms: _225  and  _227
REMARK   90  A    between atoms: _227  and  _228
REMARK   91  A    between atoms: _230  and  _232
REMARK   92  A    between atoms: _232  and  _233
REMARK   93  A    between atoms: _232  and  _235
REMARK   94  A    between atoms: _235  and  _236
REMARK   95  A    between atoms: _241  and  _242
REMARK   96  A    between atoms: _244  and  _246
REMARK   97  A    between atoms: _246  and  _247
REMARK   98  A    between atoms: _246  and  _249
REMARK   99  A    between atoms: _249  and  _250
REMARK  100  A    between atoms: _250  and  _251
REMARK  101  A    between atoms: _251  and  _252
REMARK  102  A    between atoms: _252  and  _253
REMARK  103  A    between atoms: _257  and  _259
REMARK  104  A    between atoms: _259  and  _260
REMARK  105  A    between atoms: _259  and  _262
REMARK  106  A    between atoms: _262  and  _263
REMARK  107  A    between atoms: _266  and  _268
REMARK  108  A    between atoms: _268  and  _269
REMARK  109  A    between atoms: _268  and  _271
REMARK  110  A    between atoms: _271  and  _272
REMARK  111  A    between atoms: _272  and  _273
REMARK  112  A    between atoms: _273  and  _274
REMARK  113  A    between atoms: _283  and  _285
REMARK  114  A    between atoms: _285  and  _286
REMARK  115  A    between atoms: _285  and  _288
REMARK  116  A    between atoms: _288  and  _289
REMARK  117  A    between atoms: _292  and  _294
REMARK  118  A    between atoms: _294  and  _295
REMARK  119  A    between atoms: _294  and  _297
REMARK  120  A    between atoms: _297  and  _298
REMARK  121  A    between atoms: _298  and  _299
REMARK  122  A    between atoms: _299  and  _300
REMARK  123  A    between atoms: _300  and  _301
REMARK  124  A    between atoms: _305  and  _307
REMARK  125  A    between atoms: _307  and  _308
REMARK  126  A    between atoms: _307  and  _310
REMARK  127  A    between atoms: _310  and  _311
REMARK  128  A    between atoms: _314  and  _316
REMARK  129  A    between atoms: _316  and  _317
REMARK  130  A    between atoms: _316  and  _319
REMARK  131  A    between atoms: _319  and  _320
REMARK  132  A    between atoms: _320  and  _321
REMARK  133  A    between atoms: _326  and  _328
REMARK  134  A    between atoms: _328  and  _329
REMARK  135  A    between atoms: _328  and  _331
REMARK  136  A    between atoms: _331  and  _332
REMARK  137  A    between atoms: _335  and  _337
REMARK  138  A    between atoms: _337  and  _338
REMARK  139  A    between atoms: _337  and  _340
REMARK  140  A    between atoms: _340  and  _341
REMARK  141  A    between atoms: _346  and  _347
REMARK  142  A    between atoms: _349  and  _351
REMARK  143  A    between atoms: _351  and  _352
REMARK  144  A    between atoms: _351  and  _354
REMARK  145  A    between atoms: _354  and  _355
REMARK  146  A    between atoms: _358  and  _360
REMARK  147  A    between atoms: _360  and  _361
REMARK  148  A    between atoms: _360  and  _363
REMARK  149  A    between atoms: _365  and  _367
REMARK  150  A    between atoms: _367  and  _368
REMARK  151  A    between atoms: _371  and  _373
REMARK  152  A    between atoms: _373  and  _374
REMARK  153  A    between atoms: _373  and  _376
REMARK  154  A    between atoms: _376  and  _377
REMARK  155  A    between atoms: _380  and  _382
REMARK  156  A    between atoms: _382  and  _383
REMARK  157  A    between atoms: _386  and  _388
REMARK  158  A    between atoms: _388  and  _389
REMARK  159  A    between atoms: _388  and  _391
REMARK  160  A    between atoms: _391  and  _392
REMARK  161  A    between atoms: _392  and  _506
REMARK  162  A    between atoms: _393  and  _395
REMARK  163  A    between atoms: _395  and  _396
REMARK  164  A    between atoms: _395  and  _398
REMARK  165  A    between atoms: _398  and  _399
REMARK  166  A    between atoms: _399  and  _400
REMARK  167  A    between atoms: _400  and  _401
REMARK  168  A    between atoms: _401  and  _402
REMARK  169  A    between atoms: _406  and  _408
REMARK  170  A    between atoms: _408  and  _409
REMARK  171  A    between atoms: _411  and  _413
REMARK  172  A    between atoms: _413  and  _414
REMARK  173  A    between atoms: _413  and  _416
REMARK  174  A    between atoms: _416  and  _417
REMARK  175  A    between atoms: _420  and  _422
REMARK  176  A    between atoms: _422  and  _423
REMARK  177  A    between atoms: _422  and  _425
REMARK  178  A    between atoms: _425  and  _426
REMARK  179  A    between atoms: _428  and  _430
REMARK  180  A    between atoms: _430  and  _431
REMARK  181  A    between atoms: _433  and  _435
REMARK  182  A    between atoms: _435  and  _436
REMARK  183  A    between atoms: _438  and  _440
REMARK  184  A    between atoms: _440  and  _441
REMARK  185  A    between atoms: _440  and  _443
REMARK  186  A    between atoms: _443  and  _444
REMARK  187  A    between atoms: _447  and  _449
REMARK  188  A    between atoms: _449  and  _450
REMARK  189  A    between atoms: _449  and  _452
REMARK  190  A    between atoms: _452  and  _453
REMARK  191  A    between atoms: _456  and  _458
REMARK  192  A    between atoms: _458  and  _459
REMARK  193  A    between atoms: _458  and  _461
REMARK  194  A    between atoms: _461  and  _462
REMARK  195  A    between atoms: _464  and  _466
REMARK  196  A    between atoms: _466  and  _467
REMARK  197  A    between atoms: _466  and  _469
REMARK  198  A    between atoms: _469  and  _470
REMARK  199  A    between atoms: _480  and  _482
REMARK  200  A    between atoms: _482  and  _483
REMARK  201  A    between atoms: _485  and  _487
REMARK  202  A    between atoms: _487  and  _488
REMARK  203  A    between atoms: _487  and  _490
REMARK  204  A    between atoms: _490  and  _491
REMARK  205  A    between atoms: _491  and  _492
REMARK  206  A    between atoms: _495  and  _497
REMARK  207  A    between atoms: _497  and  _498
REMARK  208  A    between atoms: _500  and  _502
REMARK  209  A    between atoms: _502  and  _503
REMARK  210  A    between atoms: _502  and  _505
REMARK  211  A    between atoms: _505  and  _506
REMARK  212  A    between atoms: _507  and  _509
REMARK  213  A    between atoms: _509  and  _510
REMARK  214  A    between atoms: _513  and  _515
REMARK  215  A    between atoms: _515  and  _516
REMARK  216  A    between atoms: _515  and  _518
REMARK  217  A    between atoms: _518  and  _519
REMARK  218  A    between atoms: _519  and  _520
REMARK  219  A    between atoms: _525  and  _527
REMARK  220  A    between atoms: _527  and  _528
REMARK  221  A    between atoms: _527  and  _530
REMARK  222  A    between atoms: _530  and  _531
REMARK  223  A    between atoms: _531  and  _532
REMARK  224  A    between atoms: _532  and  _533
REMARK  225  A    between atoms: _543  and  _544
REMARK  226  A    between atoms: _549  and  _551
REMARK  227  A    between atoms: _551  and  _552
REMARK  228  A    between atoms: _554  and  _556
REMARK  229  A    between atoms: _556  and  _557
REMARK  230  A    between atoms: _556  and  _559
REMARK  231  A    between atoms: _562  and  _564
REMARK  232  A    between atoms: _564  and  _565
REMARK  233  A    between atoms: _564  and  _567
REMARK  234  A    between atoms: _567  and  _568
REMARK  235  A    between atoms: _573  and  _574
REMARK  236  A    between atoms: _576  and  _578
REMARK  237  A    between atoms: _578  and  _579
REMARK  238  A    between atoms: _578  and  _581
REMARK  239  A    between atoms: _581  and  _582
REMARK                            x       y       z     vdW  Elec       q    Type
REMARK                         _______ _______ _______ _____ _____    ______ ____
ROOT
ATOM      1  C   THR A   1      48.141  35.834   4.822  0.00  0.00    +0.241 C 
ATOM      2  N   LEU A   2      48.637  35.459   5.998  0.00  0.00    -0.298 N 
ATOM      3  H   LEU A   2      48.531  34.467   6.292  0.00  0.00    +0.150 HD
ATOM      4  O   THR A   1      48.165  37.004   4.416  0.00  0.00    -0.274 OA
ENDROOT
BRANCH   1   5
ATOM      5  CA  THR A   1      47.449  34.715   4.054  0.00  0.00    +0.172 C 
BRANCH   5   6
ATOM      6  N   THR A   1      46.040  35.075   3.847  0.00  0.00    -0.236 NA
ATOM      7  H   THR A   1      45.824  35.843   3.180  0.00  0.00    +0.142 HD
ENDBRANCH   5   6
BRANCH   5   8
ATOM      8  CB  THR A   1      48.202  34.358   2.762  0.00  0.00    +0.135 C 
ATOM      9  CG2 THR A   1      47.860  35.281   1.586  0.00  0.00    +0.034 C 
BRANCH   8  10
ATOM     10  OG1 THR A   1      49.595  34.422   3.020  0.00  0.00    -0.383 OA
ATOM     11  HG1 THR A   1      49.827  33.778   3.735  0.00  0.00    +0.210 HD
ENDBRANCH   8  10
ENDBRANCH   5   8
ENDBRANCH   1   5
BRANCH   2  12
ATOM     12  CA  LEU A   2      49.315  36.375   6.879  0.00  0.00    +0.137 C 
BRANCH  12  13
ATOM     13  C   LEU A   2      50.787  36.233   6.605  0.00  0.00    +0.227 C 
ATOM     14  O   LEU A   2      51.322  35.125   6.628  0.00  0.00    -0.286 OA
ENDBRANCH  12  13
BRANCH  12  15
ATOM     15  CB  LEU A   2      49.005  36.032   8.313  0.00  0.00    +0.028 C 
BRANCH  15  16
ATOM     16  CG  LEU A   2      49.766  36.761   9.433  0.00  0.00    +0.002 C 
ATOM     17  CD2 LEU A   2      49.251  36.238  10.757  0.00  0.00    +0.000 C 
ATOM     18  CD1 LEU A   2      49.616  38.289   9.368  0.00  0.00    +0.000 C 
ENDBRANCH  15  16
ENDBRANCH  12  15
ENDBRANCH   2  12
TORSDOF 8
REMARK  Name = ../refined-set-2016/4crf/4crf_pocket.pdb
REMARK  239 active torsions:
REMARK  status: ('A' for Active; 'I' for Inactive)
REMARK    1  A    between atoms: _1  and  _5
REMARK    2  A    between atoms: _5  and  _6
REMARK    3  A    between atoms: _5  and  _8
REMARK    4  A    between atoms: _8  and  _9
REMARK    5  A    between atoms: _12  and  _14
REMARK    6  A    between atoms: _14  and  _15
REMARK    7  A    between atoms: _14  and  _17
REMARK    8  A    between atoms: _20  and  _22
REMARK    9  A    between atoms: _22  and  _23
REMARK   10  A    between atoms: _22  and  _25
REMARK   11  A    between atoms: _25  and  _26
REMARK   12  A    between atoms: _29  and  _31
REMARK   13  A    between atoms: _31  and  _32
REMARK   14  A    between atoms: _31  and  _34
REMARK   15  A    between atoms: _34  and  _35
REMARK   16  A    between atoms: _38  and  _40
REMARK   17  A    between atoms: _40  and  _41
REMARK   18  A    between atoms: _40  and  _43
REMARK   19  A    between atoms: _43  and  _44
REMARK   20  A    between atoms: _47  and  _49
REMARK   21  A    between atoms: _49  and  _50
REMARK   22  A    between atoms: _49  and  _52
REMARK   23  A    between atoms: _52  and  _53
REMARK   24  A    between atoms: _56  and  _58
REMARK   25  A    between atoms: _58  and  _59
REMARK   26  A    between atoms: _58  and  _61
REMARK   27  A    between atoms: _61  and  _62
REMARK   28  A    between atoms: _62  and  _63
REMARK   29  A    between atoms: _68  and  _70
REMARK   30  A    between atoms: _70  and  _71
REMARK   31  A    between atoms: _70  and  _73
REMARK   32  A    between atoms: _73  and  _74
REMARK   33  A    between atoms: _74  and  _75
REMARK   34  A    between atoms: _75  and  _76
REMARK   35  A    between atoms: _85  and  _87
REMARK   36  A    between atoms: _87  and  _88
REMARK   37  A    between atoms: _87  and  _90
REMARK   38  A    between atoms: _90  and  _91
REMARK   39  A    between atoms: _96  and  _98
REMARK   40  A    between atoms: _98  and  _99
REMARK   41  A    between atoms: _98  and  _101
REMARK   42  A    between atoms: _101  and  _102
REMARK   43  A    between atoms: _105  and  _107
REMARK   44  A    between atoms: _107  and  _108
REMARK   45  A    between atoms: _107  and  _110
REMARK   46  A    between atoms: _110  and  _111
REMARK   47  A    between atoms: _111  and  _146
REMARK   48  A    between atoms: _112  and  _114
REMARK   49  A    between atoms: _114  and  _115
REMARK   50  A    between atoms: _117  and  _119
REMARK   51  A    between atoms: _119  and  _120
REMARK   52  A    between atoms: _123  and  _125
REMARK   53  A    between atoms: _125  and  _126
REMARK   54  A    between atoms: _129  and  _131
REMARK   55  A    between atoms: _131  and  _132
REMARK   56  A    between atoms: _131  and  _134
REMARK   57  A    between atoms: _134  and  _135
REMARK   58  A    between atoms: _140  and  _142
REMARK   59  A    between atoms: _142  and  _143
REMARK   60  A    between atoms: _142  and  _145
REMARK   61  A    between atoms: _145  and  _146
REMARK   62  A    between atoms: _147  and  _149
REMARK   63  A    between atoms: _149  and  _150
REMARK   64  A    between atoms: _149  and  _152
REMARK   65  A    between atoms: _152  and  _153
REMARK   66  A    between atoms: _159  and  _161
REMARK   67  A    between atoms: _161  and  _162
REMARK   68  A    between atoms: _161  and  _164
REMARK   69  A    between atoms: _164  and  _165
REMARK   70  A    between atoms: _170  and  _171
REMARK   71  A    between atoms: _173  and  _175
REMARK   72  A    between atoms: _175  and  _176
REMARK   73  A    between atoms: _178  and  _180
REMARK   74  A    between atoms: _180  and  _181
REMARK   75  A    between atoms: _180  and  _183
REMARK   76  A    between atoms: _186  and  _188
REMARK   77  A    between atoms: _188  and  _189
REMARK   78  A    between atoms: _192  and  _194
REMARK   79  A    between atoms: _194  and  _195
REMARK   80  A    between atoms: _194  and  _197
REMARK   81  A    between atoms: _197  and  _198
REMARK   82  A    between atoms: _201  and  _203
REMARK   83  A    between atoms: _203  and  _204
REMARK   84  A    between atoms: _203  and  _206
REMARK   85  A    between atoms: _209  and  _211
REMARK   86  A    between atoms: _211  and  _212
REMARK   87  A    between atoms: _211  and  _214
REMARK   88  A    between atoms: _214  and  _215
REMARK   89  A    between atoms: _225  and  _227
REMARK   90  A    between atoms: _227  and  _228
REMARK   91  A    between atoms: _230  and  _232
REMARK   92  A    between atoms: _232  and  _233
REMARK   93  A    between atoms: _232  and  _235
REMARK   94  A    between atoms: _235  and  _236
REMARK   95  A    between atoms: _241  and  _242
REMARK   96  A    between atoms: _244  and  _246
REMARK   97  A    between atoms: _246  and  _247
REMARK   98  A    between atoms: _246  and  _249
REMARK   99  A    between atoms: _249  and  _250
REMARK  100  A    between atoms: _250  and  _251
REMARK  101  A    between atoms: _251  and  _252
REMARK  102  A    between atoms: _252  and  _253
REMARK  103  A    between atoms: _257  and  _259
REMARK  104  A    between atoms: _259  and  _260
REMARK  105  A    between atoms: _259  and  _262
REMARK  106  A    between atoms: _262  and  _263
REMARK  107  A    between atoms: _266  and  _268
REMARK  108  A    between atoms: _268  and  _269
REMARK  109  A    between atoms: _268  and  _271
REMARK  110  A    between atoms: _271  and  _272
REMARK  111  A    between atoms: _272  and  _273
REMARK  112  A    between atoms: _273  and  _274
REMARK  113  A    between atoms: _283  and  _285
REMARK  114  A    between atoms: _285  and  _286
REMARK  115  A    between atoms: _285  and  _288
REMARK  116  A    between atoms: _288  and  _289
REMARK  117  A    between atoms: _292  and  _294
REMARK  118  A    between atoms: _294  and  _295
REMARK  119  A    between atoms: _294  and  _297
REMARK  120  A    between atoms: _297  and  _298
REMARK  121  A    between atoms: _298  and  _299
REMARK  122  A    between atoms: _299  and  _300
REMARK  123  A    between atoms: _300  and  _301
REMARK  124  A    between atoms: _305  and  _307
REMARK  125  A    between atoms: _307  and  _308
REMARK  126  A    between atoms: _307  and  _310
REMARK  127  A    between atoms: _310  and  _311
REMARK  128  A    between atoms: _314  and  _316
REMARK  129  A    between atoms: _316  and  _317
REMARK  130  A    between atoms: _316  and  _319
REMARK  131  A    between atoms: _319  and  _320
REMARK  132  A    between atoms: _320  and  _321
REMARK  133  A    between atoms: _326  and  _328
REMARK  134  A    between atoms: _328  and  _329
REMARK  135  A    between atoms: _328  and  _331
REMARK  136  A    between atoms: _331  and  _332
REMARK  137  A    between atoms: _335  and  _337
REMARK  138  A    between atoms: _337  and  _338
REMARK  139  A    between atoms: _337  and  _340
REMARK  140  A    between atoms: _340  and  _341
REMARK  141  A    between atoms: _346  and  _347
REMARK  142  A    between atoms: _349  and  _351
REMARK  143  A    between atoms: _351  and  _352
REMARK  144  A    between atoms: _351  and  _354
REMARK  145  A    between atoms: _354  and  _355
REMARK  146  A    between atoms: _358  and  _360
REMARK  147  A    between atoms: _360  and  _361
REMARK  148  A    between atoms: _360  and  _363
REMARK  149  A    between atoms: _365  and  _367
REMARK  150  A    between atoms: _367  and  _368
REMARK  151  A    between atoms: _371  and  _373
REMARK  152  A    between atoms: _373  and  _374
REMARK  153  A    between atoms: _373  and  _376
REMARK  154  A    between atoms: _376  and  _377
REMARK  155  A    between atoms: _380  and  _382
REMARK  156  A    between atoms: _382  and  _383
REMARK  157  A    between atoms: _386  and  _388
REMARK  158  A    between atoms: _388  and  _389
REMARK  159  A    between atoms: _388  and  _391
REMARK  160  A    between atoms: _391  and  _392
REMARK  161  A    between atoms: _392  and  _506
REMARK  162  A    between atoms: _393  and  _395
REMARK  163  A    between atoms: _395  and  _396
REMARK  164  A    between atoms: _395  and  _398
REMARK  165  A    between atoms: _398  and  _399
REMARK  166  A    between atoms: _399  and  _400
REMARK  167  A    between atoms: _400  and  _401
REMARK  168  A    between atoms: _401  and  _402
REMARK  169  A    between atoms: _406  and  _408
REMARK  170  A    between atoms: _408  and  _409
REMARK  171  A    between atoms: _411  and  _413
REMARK  172  A    between atoms: _413  and  _414
REMARK  173  A    between atoms: _413  and  _416
REMARK  174  A    between atoms: _416  and  _417
REMARK  175  A    between atoms: _420  and  _422
REMARK  176  A    between atoms: _422  and  _423
REMARK  177  A    between atoms: _422  and  _425
REMARK  178  A    between atoms: _425  and  _426
REMARK  179  A    between atoms: _428  and  _430
REMARK  180  A    between atoms: _430  and  _431
REMARK  181  A    between atoms: _433  and  _435
REMARK  182  A    between atoms: _435  and  _436
REMARK  183  A    between atoms: _438  and  _440
REMARK  184  A    between atoms: _440  and  _441
REMARK  185  A    between atoms: _440  and  _443
REMARK  186  A    between atoms: _443  and  _444
REMARK  187  A    between atoms: _447  and  _449
REMARK  188  A    between atoms: _449  and  _450
REMARK  189  A    between atoms: _449  and  _452
REMARK  190  A    between atoms: _452  and  _453
REMARK  191  A    between atoms: _456  and  _458
REMARK  192  A    between atoms: _458  and  _459
REMARK  193  A    between atoms: _458  and  _461
REMARK  194  A    between atoms: _461  and  _462
REMARK  195  A    between atoms: _464  and  _466
REMARK  196  A    between atoms: _466  and  _467
REMARK  197  A    between atoms: _466  and  _469
REMARK  198  A    between atoms: _469  and  _470
REMARK  199  A    between atoms: _480  and  _482
REMARK  200  A    between atoms: _482  and  _483
REMARK  201  A    between atoms: _485  and  _487
REMARK  202  A    between atoms: _487  and  _488
REMARK  203  A    between atoms: _487  and  _490
REMARK  204  A    between atoms: _490  and  _491
REMARK  205  A    between atoms: _491  and  _492
REMARK  206  A    between atoms: _495  and  _497
REMARK  207  A    between atoms: _497  and  _498
REMARK  208  A    between atoms: _500  and  _502
REMARK  209  A    between atoms: _502  and  _503
REMARK  210  A    between atoms: _502  and  _505
REMARK  211  A    between atoms: _505  and  _506
REMARK  212  A    between atoms: _507  and  _509
REMARK  213  A    between atoms: _509  and  _510
REMARK  214  A    between atoms: _513  and  _515
REMARK  215  A    between atoms: _515  and  _516
REMARK  216  A    between atoms: _515  and  _518
REMARK  217  A    between atoms: _518  and  _519
REMARK  218  A    between atoms: _519  and  _520
REMARK  219  A    between atoms: _525  and  _527
REMARK  220  A    between atoms: _527  and  _528
REMARK  221  A    between atoms: _527  and  _530
REMARK  222  A    between atoms: _530  and  _531
REMARK  223  A    between atoms: _531  and  _532
REMARK  224  A    between atoms: _532  and  _533
REMARK  225  A    between atoms: _543  and  _544
REMARK  226  A    between atoms: _549  and  _551
REMARK  227  A    between atoms: _551  and  _552
REMARK  228  A    between atoms: _554  and  _556
REMARK  229  A    between atoms: _556  and  _557
REMARK  230  A    between atoms: _556  and  _559
REMARK  231  A    between atoms: _562  and  _564
REMARK  232  A    between atoms: _564  and  _565
REMARK  233  A    between atoms: _564  and  _567
REMARK  234  A    between atoms: _567  and  _568
REMARK  235  A    between atoms: _573  and  _574
REMARK  236  A    between atoms: _576  and  _578
REMARK  237  A    between atoms: _578  and  _579
REMARK  238  A    between atoms: _578  and  _581
REMARK  239  A    between atoms: _581  and  _582
REMARK                            x       y       z     vdW  Elec       q    Type
REMARK                         _______ _______ _______ _____ _____    ______ ____
ROOT
ATOM      1  CA  THR A   1      55.878  38.572   7.846  0.00  0.00    +0.160 C 
ENDROOT
BRANCH   1   2
ATOM      2  N   THR A   1      54.904  37.752   7.142  0.00  0.00    -0.237 NA
ATOM      3  H   THR A   1      55.205  36.844   6.735  0.00  0.00    +0.142 HD
ENDBRANCH   1   2
BRANCH   1   4
ATOM      4  CB  THR A   1      56.643  37.834   8.962  0.00  0.00    +0.134 C 
ATOM      5  CG2 THR A   1      57.361  36.564   8.423  0.00  0.00    +0.034 C 
BRANCH   4   6
ATOM      6  OG1 THR A   1      57.608  38.734   9.543  0.00  0.00    -0.383 OA
ATOM      7  HG1 THR A   1      58.103  38.266  10.261  0.00  0.00    +0.210 HD
ENDBRANCH   4   6
ENDBRANCH   1   4
BRANCH   1   8
ATOM      8  C   THR A   1      56.873  39.147   6.835  0.00  0.00    +0.227 C 
ATOM      9  O   THR A   1      57.231  38.469   5.846  0.00  0.00    -0.287 OA
ENDBRANCH   1   8
TORSDOF 4
REMARK  Name = ../refined-set-2016/4crf/4crf_pocket.pdb
REMARK  239 active torsions:
REMARK  status: ('A' for Active; 'I' for Inactive)
REMARK    1  A    between atoms: _1  and  _5
REMARK    2  A    between atoms: _5  and  _6
REMARK    3  A    between atoms: _5  and  _8
REMARK    4  A    between atoms: _8  and  _9
REMARK    5  A    between atoms: _12  and  _14
REMARK    6  A    between atoms: _14  and  _15
REMARK    7  A    between atoms: _14  and  _17
REMARK    8  A    between atoms: _20  and  _22
REMARK    9  A    between atoms: _22  and  _23
REMARK   10  A    between atoms: _22  and  _25
REMARK   11  A    between atoms: _25  and  _26
REMARK   12  A    between atoms: _29  and  _31
REMARK   13  A    between atoms: _31  and  _32
REMARK   14  A    between atoms: _31  and  _34
REMARK   15  A    between atoms: _34  and  _35
REMARK   16  A    between atoms: _38  and  _40
REMARK   17  A    between atoms: _40  and  _41
REMARK   18  A    between atoms: _40  and  _43
REMARK   19  A    between atoms: _43  and  _44
REMARK   20  A    between atoms: _47  and  _49
REMARK   21  A    between atoms: _49  and  _50
REMARK   22  A    between atoms: _49  and  _52
REMARK   23  A    between atoms: _52  and  _53
REMARK   24  A    between atoms: _56  and  _58
REMARK   25  A    between atoms: _58  and  _59
REMARK   26  A    between atoms: _58  and  _61
REMARK   27  A    between atoms: _61  and  _62
REMARK   28  A    between atoms: _62  and  _63
REMARK   29  A    between atoms: _68  and  _70
REMARK   30  A    between atoms: _70  and  _71
REMARK   31  A    between atoms: _70  and  _73
REMARK   32  A    between atoms: _73  and  _74
REMARK   33  A    between atoms: _74  and  _75
REMARK   34  A    between atoms: _75  and  _76
REMARK   35  A    between atoms: _85  and  _87
REMARK   36  A    between atoms: _87  and  _88
REMARK   37  A    between atoms: _87  and  _90
REMARK   38  A    between atoms: _90  and  _91
REMARK   39  A    between atoms: _96  and  _98
REMARK   40  A    between atoms: _98  and  _99
REMARK   41  A    between atoms: _98  and  _101
REMARK   42  A    between atoms: _101  and  _102
REMARK   43  A    between atoms: _105  and  _107
REMARK   44  A    between atoms: _107  and  _108
REMARK   45  A    between atoms: _107  and  _110
REMARK   46  A    between atoms: _110  and  _111
REMARK   47  A    between atoms: _111  and  _146
REMARK   48  A    between atoms: _112  and  _114
REMARK   49  A    between atoms: _114  and  _115
REMARK   50  A    between atoms: _117  and  _119
REMARK   51  A    between atoms: _119  and  _120
REMARK   52  A    between atoms: _123  and  _125
REMARK   53  A    between atoms: _125  and  _126
REMARK   54  A    between atoms: _129  and  _131
REMARK   55  A    between atoms: _131  and  _132
REMARK   56  A    between atoms: _131  and  _134
REMARK   57  A    between atoms: _134  and  _135
REMARK   58  A    between atoms: _140  and  _142
REMARK   59  A    between atoms: _142  and  _143
REMARK   60  A    between atoms: _142  and  _145
REMARK   61  A    between atoms: _145  and  _146
REMARK   62  A    between atoms: _147  and  _149
REMARK   63  A    between atoms: _149  and  _150
REMARK   64  A    between atoms: _149  and  _152
REMARK   65  A    between atoms: _152  and  _153
REMARK   66  A    between atoms: _159  and  _161
REMARK   67  A    between atoms: _161  and  _162
REMARK   68  A    between atoms: _161  and  _164
REMARK   69  A    between atoms: _164  and  _165
REMARK   70  A    between atoms: _170  and  _171
REMARK   71  A    between atoms: _173  and  _175
REMARK   72  A    between atoms: _175  and  _176
REMARK   73  A    between atoms: _178  and  _180
REMARK   74  A    between atoms: _180  and  _181
REMARK   75  A    between atoms: _180  and  _183
REMARK   76  A    between atoms: _186  and  _188
REMARK   77  A    between atoms: _188  and  _189
REMARK   78  A    between atoms: _192  and  _194
REMARK   79  A    between atoms: _194  and  _195
REMARK   80  A    between atoms: _194  and  _197
REMARK   81  A    between atoms: _197  and  _198
REMARK   82  A    between atoms: _201  and  _203
REMARK   83  A    between atoms: _203  and  _204
REMARK   84  A    between atoms: _203  and  _206
REMARK   85  A    between atoms: _209  and  _211
REMARK   86  A    between atoms: _211  and  _212
REMARK   87  A    between atoms: _211  and  _214
REMARK   88  A    between atoms: _214  and  _215
REMARK   89  A    between atoms: _225  and  _227
REMARK   90  A    between atoms: _227  and  _228
REMARK   91  A    between atoms: _230  and  _232
REMARK   92  A    between atoms: _232  and  _233
REMARK   93  A    between atoms: _232  and  _235
REMARK   94  A    between atoms: _235  and  _236
REMARK   95  A    between atoms: _241  and  _242
REMARK   96  A    between atoms: _244  and  _246
REMARK   97  A    between atoms: _246  and  _247
REMARK   98  A    between atoms: _246  and  _249
REMARK   99  A    between atoms: _249  and  _250
REMARK  100  A    between atoms: _250  and  _251
REMARK  101  A    between atoms: _251  and  _252
REMARK  102  A    between atoms: _252  and  _253
REMARK  103  A    between atoms: _257  and  _259
REMARK  104  A    between atoms: _259  and  _260
REMARK  105  A    between atoms: _259  and  _262
REMARK  106  A    between atoms: _262  and  _263
REMARK  107  A    between atoms: _266  and  _268
REMARK  108  A    between atoms: _268  and  _269
REMARK  109  A    between atoms: _268  and  _271
REMARK  110  A    between atoms: _271  and  _272
REMARK  111  A    between atoms: _272  and  _273
REMARK  112  A    between atoms: _273  and  _274
REMARK  113  A    between atoms: _283  and  _285
REMARK  114  A    between atoms: _285  and  _286
REMARK  115  A    between atoms: _285  and  _288
REMARK  116  A    between atoms: _288  and  _289
REMARK  117  A    between atoms: _292  and  _294
REMARK  118  A    between atoms: _294  and  _295
REMARK  119  A    between atoms: _294  and  _297
REMARK  120  A    between atoms: _297  and  _298
REMARK  121  A    between atoms: _298  and  _299
REMARK  122  A    between atoms: _299  and  _300
REMARK  123  A    between atoms: _300  and  _301
REMARK  124  A    between atoms: _305  and  _307
REMARK  125  A    between atoms: _307  and  _308
REMARK  126  A    between atoms: _307  and  _310
REMARK  127  A    between atoms: _310  and  _311
REMARK  128  A    between atoms: _314  and  _316
REMARK  129  A    between atoms: _316  and  _317
REMARK  130  A    between atoms: _316  and  _319
REMARK  131  A    between atoms: _319  and  _320
REMARK  132  A    between atoms: _320  and  _321
REMARK  133  A    between atoms: _326  and  _328
REMARK  134  A    between atoms: _328  and  _329
REMARK  135  A    between atoms: _328  and  _331
REMARK  136  A    between atoms: _331  and  _332
REMARK  137  A    between atoms: _335  and  _337
REMARK  138  A    between atoms: _337  and  _338
REMARK  139  A    between atoms: _337  and  _340
REMARK  140  A    between atoms: _340  and  _341
REMARK  141  A    between atoms: _346  and  _347
REMARK  142  A    between atoms: _349  and  _351
REMARK  143  A    between atoms: _351  and  _352
REMARK  144  A    between atoms: _351  and  _354
REMARK  145  A    between atoms: _354  and  _355
REMARK  146  A    between atoms: _358  and  _360
REMARK  147  A    between atoms: _360  and  _361
REMARK  148  A    between atoms: _360  and  _363
REMARK  149  A    between atoms: _365  and  _367
REMARK  150  A    between atoms: _367  and  _368
REMARK  151  A    between atoms: _371  and  _373
REMARK  152  A    between atoms: _373  and  _374
REMARK  153  A    between atoms: _373  and  _376
REMARK  154  A    between atoms: _376  and  _377
REMARK  155  A    between atoms: _380  and  _382
REMARK  156  A    between atoms: _382  and  _383
REMARK  157  A    between atoms: _386  and  _388
REMARK  158  A    between atoms: _388  and  _389
REMARK  159  A    between atoms: _388  and  _391
REMARK  160  A    between atoms: _391  and  _392
REMARK  161  A    between atoms: _392  and  _506
REMARK  162  A    between atoms: _393  and  _395
REMARK  163  A    between atoms: _395  and  _396
REMARK  164  A    between atoms: _395  and  _398
REMARK  165  A    between atoms: _398  and  _399
REMARK  166  A    between atoms: _399  and  _400
REMARK  167  A    between atoms: _400  and  _401
REMARK  168  A    between atoms: _401  and  _402
REMARK  169  A    between atoms: _406  and  _408
REMARK  170  A    between atoms: _408  and  _409
REMARK  171  A    between atoms: _411  and  _413
REMARK  172  A    between atoms: _413  and  _414
REMARK  173  A    between atoms: _413  and  _416
REMARK  174  A    between atoms: _416  and  _417
REMARK  175  A    between atoms: _420  and  _422
REMARK  176  A    between atoms: _422  and  _423
REMARK  177  A    between atoms: _422  and  _425
REMARK  178  A    between atoms: _425  and  _426
REMARK  179  A    between atoms: _428  and  _430
REMARK  180  A    between atoms: _430  and  _431
REMARK  181  A    between atoms: _433  and  _435
REMARK  182  A    between atoms: _435  and  _436
REMARK  183  A    between atoms: _438  and  _440
REMARK  184  A    between atoms: _440  and  _441
REMARK  185  A    between atoms: _440  and  _443
REMARK  186  A    between atoms: _443  and  _444
REMARK  187  A    between atoms: _447  and  _449
REMARK  188  A    between atoms: _449  and  _450
REMARK  189  A    between atoms: _449  and  _452
REMARK  190  A    between atoms: _452  and  _453
REMARK  191  A    between atoms: _456  and  _458
REMARK  192  A    between atoms: _458  and  _459
REMARK  193  A    between atoms: _458  and  _461
REMARK  194  A    between atoms: _461  and  _462
REMARK  195  A    between atoms: _464  and  _466
REMARK  196  A    between atoms: _466  and  _467
REMARK  197  A    between atoms: _466  and  _469
REMARK  198  A    between atoms: _469  and  _470
REMARK  199  A    between atoms: _480  and  _482
REMARK  200  A    between atoms: _482  and  _483
REMARK  201  A    between atoms: _485  and  _487
REMARK  202  A    between atoms: _487  and  _488
REMARK  203  A    between atoms: _487  and  _490
REMARK  204  A    between atoms: _490  and  _491
REMARK  205  A    between atoms: _491  and  _492
REMARK  206  A    between atoms: _495  and  _497
REMARK  207  A    between atoms: _497  and  _498
REMARK  208  A    between atoms: _500  and  _502
REMARK  209  A    between atoms: _502  and  _503
REMARK  210  A    between atoms: _502  and  _505
REMARK  211  A    between atoms: _505  and  _506
REMARK  212  A    between atoms: _507  and  _509
REMARK  213  A    between atoms: _509  and  _510
REMARK  214  A    between atoms: _513  and  _515
REMARK  215  A    between atoms: _515  and  _516
REMARK  216  A    between atoms: _515  and  _518
REMARK  217  A    between atoms: _518  and  _519
REMARK  218  A    between atoms: _519  and  _520
REMARK  219  A    between atoms: _525  and  _527
REMARK  220  A    between atoms: _527  and  _528
REMARK  221  A    between atoms: _527  and  _530
REMARK  222  A    between atoms: _530  and  _531
REMARK  223  A    between atoms: _531  and  _532
REMARK  224  A    between atoms: _532  and  _533
REMARK  225  A    between atoms: _543  and  _544
REMARK  226  A    between atoms: _549  and  _551
REMARK  227  A    between atoms: _551  and  _552
REMARK  228  A    between atoms: _554  and  _556
REMARK  229  A    between atoms: _556  and  _557
REMARK  230  A    between atoms: _556  and  _559
REMARK  231  A    between atoms: _562  and  _564
REMARK  232  A    between atoms: _564  and  _565
REMARK  233  A    between atoms: _564  and  _567
REMARK  234  A    between atoms: _567  and  _568
REMARK  235  A    between atoms: _573  and  _574
REMARK  236  A    between atoms: _576  and  _578
REMARK  237  A    between atoms: _578  and  _579
REMARK  238  A    between atoms: _578  and  _581
REMARK  239  A    between atoms: _581  and  _582
REMARK                            x       y       z     vdW  Elec       q    Type
REMARK                         _______ _______ _______ _____ _____    ______ ____
ROOT
ATOM      1  SG  TYR A   6      50.727  30.988  11.291  0.00  0.00    -0.080 S 
ENDROOT
BRANCH   1   2
ATOM      2  CB  TYR A   6      49.816  31.936  10.088  0.00  0.00    +0.098 C 
BRANCH   2   3
ATOM      3  CA  TYR A   6      50.095  31.550   8.649  0.00  0.00    +0.160 C 
BRANCH   3   4
ATOM      4  C   TYR A   6      48.857  31.850   7.873  0.00  0.00    +0.242 C 
ATOM      5  N   GLY A   7      47.872  30.982   8.023  0.00  0.00    -0.296 N 
ATOM      6  H   GLY A   7      48.064  30.071   8.486  0.00  0.00    +0.150 HD
ATOM      7  O   TYR A   6      48.759  32.870   7.229  0.00  0.00    -0.273 OA
BRANCH   5   8
ATOM      8  CA  GLY A   7      46.526  31.271   7.556  0.00  0.00    +0.163 C 
BRANCH   8   9
ATOM      9  C   GLY A   7      45.772  32.115   8.544  0.00  0.00    +0.229 C 
ATOM     10  O   GLY A   7      46.262  32.374   9.641  0.00  0.00    -0.286 OA
ENDBRANCH   8   9
ENDBRANCH   5   8
ENDBRANCH   3   4
BRANCH   3  13
ATOM     11  C   PHE A   5      52.462  31.894   8.410  0.00  0.00    +0.241 C 
ATOM     12  O   PHE A   5      52.712  30.795   8.921  0.00  0.00    -0.273 OA
ATOM     13  N   TYR A   6      51.227  32.310   8.182  0.00  0.00    -0.296 N 
ATOM     14  H   TYR A   6      51.071  33.196   7.660  0.00  0.00    +0.150 HD
BRANCH  11  15
ATOM     15  CA  PHE A   5      53.559  32.847   7.975  0.00  0.00    +0.149 C 
BRANCH  15  17
ATOM     16  C   CYS A   4      54.225  32.935   5.625  0.00  0.00    +0.241 C 
ATOM     17  N   PHE A   5      53.387  33.282   6.595  0.00  0.00    -0.297 N 
ATOM     18  H   PHE A   5      52.575  33.889   6.360  0.00  0.00    +0.150 HD
ATOM     19  O   CYS A   4      55.184  32.169   5.791  0.00  0.00    -0.273 OA
BRANCH  16  20
ATOM     20  CA  CYS A   4      53.915  33.505   4.245  0.00  0.00    +0.155 C 
BRANCH  20  23
ATOM     21  C   HIS A   3      55.840  34.985   4.119  0.00  0.00    +0.241 C 
ATOM     22  O   HIS A   3      55.519  35.632   5.095  0.00  0.00    -0.273 OA
ATOM     23  N   CYS A   4      55.112  34.006   3.609  0.00  0.00    -0.297 N 
ATOM     24  H   CYS A   4      55.414  33.578   2.711  0.00  0.00    +0.150 HD
BRANCH  21  25
ATOM     25  CA  HIS A   3      57.140  35.241   3.401  0.00  0.00    +0.149 C 
BRANCH  25  27
ATOM     26  C   ALA A   2      58.379  37.198   2.759  0.00  0.00    +0.241 C 
ATOM     27  N   HIS A   3      57.640  36.581   3.663  0.00  0.00    -0.297 N 
ATOM     28  H   HIS A   3      57.416  37.053   4.562  0.00  0.00    +0.150 HD
ATOM     29  O   ALA A   2      58.758  36.643   1.751  0.00  0.00    -0.273 OA
BRANCH  26  30
ATOM     30  CA  ALA A   2      58.760  38.645   3.046  0.00  0.00    +0.149 C 
BRANCH  30  33
ATOM     31  C   ALA A   1      61.015  38.455   3.895  0.00  0.00    +0.241 C 
ATOM     32  O   ALA A   1      60.671  37.657   4.789  0.00  0.00    -0.274 OA
ATOM     33  N   ALA A   2      60.193  38.849   2.929  0.00  0.00    -0.297 N 
ATOM     34  H   ALA A   2      60.580  39.308   2.080  0.00  0.00    +0.150 HD
BRANCH  31  35
ATOM     35  CA  ALA A   1      62.426  39.050   3.865  0.00  0.00    +0.172 C 
BRANCH  35  36
ATOM     36  CB  ALA A   1      63.177  38.568   2.601  0.00  0.00    +0.135 C 
ATOM     37  CG2 ALA A   1      64.467  39.354   2.367  0.00  0.00    +0.034 C 
BRANCH  36  38
ATOM     38  OG1 ALA A   1      63.511  37.200   2.753  0.00  0.00    -0.383 OA
ATOM     39  HG1 ALA A   1      63.992  36.887   1.946  0.00  0.00    +0.210 HD
ENDBRANCH  36  38
ENDBRANCH  35  36
BRANCH  35  40
ATOM     40  N   ALA A   1      63.112  38.686   5.117  0.00  0.00    -0.236 NA
ATOM     41  H   ALA A   1      63.243  37.680   5.347  0.00  0.00    +0.142 HD
ENDBRANCH  35  40
ENDBRANCH  31  35
ENDBRANCH  30  33
BRANCH  30  42
ATOM     42  CB  ALA A   2      57.972  39.606   2.158  0.00  0.00    +0.039 C 
BRANCH  42  43
ATOM     43  CG  ALA A   2      56.504  39.699   2.565  0.00  0.00    +0.087 C 
BRANCH  43  44
ATOM     44  CD  ALA A   2      55.669  40.732   1.787  0.00  0.00    +0.219 C 
ATOM     45  OE1 ALA A   2      55.975  41.917   1.757  0.00  0.00    -0.275 OA
ATOM     46  NE2 ALA A   2      54.582  40.271   1.195  0.00  0.00    -0.329 N 
ATOM     47 HE21 ALA A   2      54.354  39.257   1.242  0.00  0.00    +0.145 HD
ATOM     48 HE22 ALA A   2      53.954  40.922   0.682  0.00  0.00    +0.145 HD
ENDBRANCH  43  44
ENDBRANCH  42  43
ENDBRANCH  30  42
ENDBRANCH  26  30
ENDBRANCH  25  27
BRANCH  25  49
ATOM     49  CB  HIS A   3      58.150  34.202   3.840  0.00  0.00    +0.033 C 
BRANCH  49  50
ATOM     50  CG  HIS A   3      58.407  34.233   5.335  0.00  0.00    +0.045 C 
BRANCH  50  51
ATOM     51  CD  HIS A   3      59.628  33.409   5.675  0.00  0.00    +0.174 C 
BRANCH  51  52
ATOM     52  NE  HIS A   3      60.832  34.227   5.877  0.00  0.00    -0.265 N 
ATOM     53  HE  HIS A   3      60.890  34.774   6.759  0.00  0.00    +0.259 HD
ATOM     54  CZ  HIS A   3      61.862  34.331   5.027  0.00  0.00    +0.342 C 
ATOM     55  NH2 HIS A   3      62.897  35.095   5.330  0.00  0.00    -0.292 N 
ATOM     56 HH21 HIS A   3      62.913  35.617   6.230  0.00  0.00    +0.255 HD
ATOM     57 HH22 HIS A   3      63.696  35.175   4.669  0.00  0.00    +0.255 HD
ATOM     58  NH1 HIS A   3      61.870  33.691   3.859  0.00  0.00    -0.292 N 
ATOM     59 HH11 HIS A   3      61.063  33.093   3.588  0.00  0.00    +0.255 HD
ATOM     60 HH12 HIS A   3      62.683  33.789   3.218  0.00  0.00    +0.255 HD
ENDBRANCH  51  52
ENDBRANCH  50  51
ENDBRANCH  49  50
ENDBRANCH  25  49
ENDBRANCH  21  25
ENDBRANCH  20  23
BRANCH  20  61
ATOM     61  CB  CYS A   4      53.270  32.436   3.349  0.00  0.00    +0.076 C 
BRANCH  61  62
ATOM     62  CG  CYS A   4      52.189  31.651   4.023  0.00  0.00    +0.082 A 
ATOM     63  CD2 CYS A   4      52.244  30.504   4.741  0.00  0.00    +0.115 A 
ATOM     64  NE2 CYS A   4      50.962  30.216   5.142  0.00  0.00    -0.221 NA
ATOM     65  CE1 CYS A   4      50.147  31.147   4.673  0.00  0.00    +0.199 A 
ATOM     66  ND1 CYS A   4      50.864  32.033   4.005  0.00  0.00    -0.227 NA
ENDBRANCH  61  62
ENDBRANCH  20  61
ENDBRANCH  16  20
ENDBRANCH  15  17
BRANCH  15  67
ATOM     67  CB  PHE A   5      53.534  34.073   8.872  0.00  0.00    +0.029 C 
BRANCH  67  68
ATOM     68  CG  PHE A   5      53.607  33.895  10.380  0.00  0.00    +0.002 C 
ATOM     69  CD2 PHE A   5      53.496  35.268  11.022  0.00  0.00    +0.000 C 
ATOM     70  CD1 PHE A   5      54.901  33.210  10.762  0.00  0.00    +0.000 C 
ENDBRANCH  67  68
ENDBRANCH  15  67
ENDBRANCH  11  15
ENDBRANCH   3  13
ENDBRANCH   2   3
ENDBRANCH   1   2
BRANCH   1  71
ATOM     71  SG  CYS A   4      49.732  31.303  13.011  0.00  0.00    -0.080 S 
BRANCH  71  72
ATOM     72  CB  CYS A   4      50.662  32.583  13.812  0.00  0.00    +0.098 C 
BRANCH  72  73
ATOM     73  CA  CYS A   4      51.784  32.049  14.705  0.00  0.00    +0.160 C 
BRANCH  73  74
ATOM     74  C   CYS A   4      52.693  33.224  15.037  0.00  0.00    +0.242 C 
ATOM     75  N   PHE A   5      52.547  33.759  16.246  0.00  0.00    -0.297 N 
ATOM     76  H   PHE A   5      51.887  33.324  16.921  0.00  0.00    +0.150 HD
ATOM     77  O   CYS A   4      53.492  33.653  14.199  0.00  0.00    -0.273 OA
BRANCH  75  78
ATOM     78  CA  PHE A   5      53.293  34.939  16.639  0.00  0.00    +0.153 C 
BRANCH  78  79
ATOM     79  C   PHE A   5      54.474  34.656  17.549  0.00  0.00    +0.241 C 
ATOM     80  O   PHE A   5      54.991  35.584  18.174  0.00  0.00    -0.273 OA
ATOM     81  N   TYR A   6      54.936  33.405  17.584  0.00  0.00    -0.297 N 
ATOM     82  H   TYR A   6      54.409  32.643  17.112  0.00  0.00    +0.150 HD
BRANCH  81  83
ATOM     83  CA  TYR A   6      56.185  33.105  18.286  0.00  0.00    +0.153 C 
BRANCH  83  84
ATOM     84  C   TYR A   6      57.313  33.991  17.779  0.00  0.00    +0.241 C 
ATOM     85  N   GLY A   7      57.894  34.788  18.661  0.00  0.00    -0.295 N 
ATOM     86  H   GLY A   7      57.553  34.793  19.644  0.00  0.00    +0.150 HD
ATOM     87  O   TYR A   6      57.644  33.965  16.602  0.00  0.00    -0.273 OA
BRANCH  85  88
ATOM     88  CA  GLY A   7      59.012  35.667  18.282  0.00  0.00    +0.176 C 
BRANCH  88  89
ATOM     89  C   GLY A   7      58.631  36.903  17.481  0.00  0.00    +0.243 C 
ATOM     90  N   VAL A   8      57.339  37.132  17.233  0.00  0.00    -0.298 N 
ATOM     91  H   VAL A   8      56.630  36.420  17.501  0.00  0.00    +0.150 HD
ATOM     92  O   GLY A   7      59.513  37.648  17.060  0.00  0.00    -0.273 OA
BRANCH  90  93
ATOM     93  CA  VAL A   8      56.909  38.379  16.586  0.00  0.00    +0.137 C 
BRANCH  93  94
ATOM     94  CB  VAL A   8      55.525  38.255  15.917  0.00  0.00    +0.026 C 
ATOM     95  CG2 VAL A   8      55.078  39.597  15.333  0.00  0.00    +0.002 C 
ATOM     96  CG1 VAL A   8      55.556  37.194  14.837  0.00  0.00    +0.002 C 
ENDBRANCH  93  94
BRANCH  93  97
ATOM     97  C   VAL A   8      56.849  39.387  17.708  0.00  0.00    +0.227 C 
ATOM     98  O   VAL A   8      56.047  39.224  18.619  0.00  0.00    -0.286 OA
ENDBRANCH  93  97
ENDBRANCH  90  93
ENDBRANCH  88  89
ENDBRANCH  85  88
ENDBRANCH  83  84
BRANCH  83  99
ATOM     99  CB  TYR A   6      56.597  31.637  18.130  0.00  0.00    +0.055 C 
BRANCH  99 100
ATOM    100  CG  TYR A   6      57.902  31.352  18.841  0.00  0.00    -0.020 A 
ATOM    101  CD2 TYR A   6      57.940  31.167  20.236  0.00  0.00    -0.001 A 
ATOM    102  CE2 TYR A   6      59.134  30.933  20.882  0.00  0.00    +0.036 A 
ATOM    103  CZ  TYR A   6      60.294  30.902  20.153  0.00  0.00    +0.134 A 
ATOM    104  CE1 TYR A   6      60.288  31.078  18.788  0.00  0.00    +0.036 A 
ATOM    105  CD1 TYR A   6      59.094  31.300  18.143  0.00  0.00    -0.001 A 
BRANCH 103 106
ATOM    106  OH  TYR A   6      61.484  30.683  20.790  0.00  0.00    -0.506 OA
ATOM    107  HH  TYR A   6      61.323  30.577  21.761  0.00  0.00    +0.292 HD
ENDBRANCH 103 106
ENDBRANCH  99 100
ENDBRANCH  83  99
ENDBRANCH  81  83
ENDBRANCH  78  79
BRANCH  78 108
ATOM    108  CB  PHE A   5      52.316  35.980  17.230  0.00  0.00    +0.055 C 
BRANCH 108 109
ATOM    109  CG  PHE A   5      51.127  36.161  16.365  0.00  0.00    -0.020 A 
ATOM    110  CD2 PHE A   5      49.923  35.529  16.667  0.00  0.00    -0.004 A 
ATOM    111  CE2 PHE A   5      48.845  35.622  15.820  0.00  0.00    -0.000 A 
ATOM    112  CZ  PHE A   5      48.977  36.317  14.642  0.00  0.00    -0.000 A 
ATOM    113  CE1 PHE A   5      50.179  36.912  14.321  0.00  0.00    -0.000 A 
ATOM    114  CD1 PHE A   5      51.253  36.815  15.173  0.00  0.00    -0.004 A 
ENDBRANCH 108 109
ENDBRANCH  78 108
ENDBRANCH  75  78
ENDBRANCH  73  74
BRANCH  73 115
ATOM    115  N   CYS A   4      51.223  31.392  15.885  0.00  0.00    -0.296 N 
ATOM    116  C   HIS A   3      52.000  30.774  16.763  0.00  0.00    +0.241 C 
ATOM    117  O   HIS A   3      53.208  30.664  16.599  0.00  0.00    -0.273 OA
ATOM    118  H   CYS A   4      50.194  31.410  16.038  0.00  0.00    +0.150 HD
BRANCH 116 119
ATOM    119  CA  HIS A   3      51.335  30.171  17.986  0.00  0.00    +0.155 C 
BRANCH 119 120
ATOM    120  N   HIS A   3      49.964  30.635  18.204  0.00  0.00    -0.297 N 
ATOM    121  C   ALA A   2      49.695  31.905  18.512  0.00  0.00    +0.241 C 
ATOM    122  O   ALA A   2      50.550  32.760  18.579  0.00  0.00    -0.273 OA
ATOM    123  H   HIS A   3      49.180  29.958  18.117  0.00  0.00    +0.150 HD
BRANCH 121 124
ATOM    124  CA  ALA A   2      48.252  32.280  18.780  0.00  0.00    +0.149 C 
ATOM    125  CB  ALA A   2      47.902  32.024  20.252  0.00  0.00    +0.031 C 
BRANCH 124 126
ATOM    126  N   ALA A   2      47.338  31.565  17.913  0.00  0.00    -0.297 N 
ATOM    127  H   ALA A   2      46.636  30.931  18.346  0.00  0.00    +0.150 HD
ATOM    128  C   ALA A   1      47.356  31.683  16.590  0.00  0.00    +0.238 C 
ATOM    129  O   ALA A   1      48.143  32.412  15.971  0.00  0.00    -0.274 OA
BRANCH 128 130
ATOM    130  CA  ALA A   1      46.330  30.838  15.852  0.00  0.00    +0.145 C 
ATOM    131  CB  ALA A   1      46.957  29.531  15.423  0.00  0.00    +0.028 C 
BRANCH 130 132
ATOM    132  N   ALA A   1      45.768  31.545  14.705  0.00  0.00    -0.238 NA
ATOM    133  H   ALA A   1      46.270  31.541  13.794  0.00  0.00    +0.142 HD
ENDBRANCH 130 132
ENDBRANCH 128 130
ENDBRANCH 124 126
ENDBRANCH 121 124
ENDBRANCH 119 120
BRANCH 119 134
ATOM    134  CB  HIS A   3      51.369  28.645  17.867  0.00  0.00    +0.076 C 
BRANCH 134 135
ATOM    135  CG  HIS A   3      50.844  28.115  16.563  0.00  0.00    +0.082 A 
ATOM    136  ND1 HIS A   3      49.661  27.412  16.464  0.00  0.00    -0.227 NA
ATOM    137  CE1 HIS A   3      49.474  27.040  15.211  0.00  0.00    +0.199 A 
ATOM    138  NE2 HIS A   3      50.469  27.512  14.486  0.00  0.00    -0.221 NA
ATOM    139  CD2 HIS A   3      51.342  28.182  15.310  0.00  0.00    +0.115 A 
ENDBRANCH 134 135
ENDBRANCH 119 134
ENDBRANCH 116 119
ENDBRANCH  73 115
ENDBRANCH  72  73
ENDBRANCH  71  72
ENDBRANCH   1  71
TORSDOF 56
REMARK  Name = ../refined-set-2016/4crf/4crf_pocket.pdb
REMARK  239 active torsions:
REMARK  status: ('A' for Active; 'I' for Inactive)
REMARK    1  A    between atoms: _1  and  _5
REMARK    2  A    between atoms: _5  and  _6
REMARK    3  A    between atoms: _5  and  _8
REMARK    4  A    between atoms: _8  and  _9
REMARK    5  A    between atoms: _12  and  _14
REMARK    6  A    between atoms: _14  and  _15
REMARK    7  A    between atoms: _14  and  _17
REMARK    8  A    between atoms: _20  and  _22
REMARK    9  A    between atoms: _22  and  _23
REMARK   10  A    between atoms: _22  and  _25
REMARK   11  A    between atoms: _25  and  _26
REMARK   12  A    between atoms: _29  and  _31
REMARK   13  A    between atoms: _31  and  _32
REMARK   14  A    between atoms: _31  and  _34
REMARK   15  A    between atoms: _34  and  _35
REMARK   16  A    between atoms: _38  and  _40
REMARK   17  A    between atoms: _40  and  _41
REMARK   18  A    between atoms: _40  and  _43
REMARK   19  A    between atoms: _43  and  _44
REMARK   20  A    between atoms: _47  and  _49
REMARK   21  A    between atoms: _49  and  _50
REMARK   22  A    between atoms: _49  and  _52
REMARK   23  A    between atoms: _52  and  _53
REMARK   24  A    between atoms: _56  and  _58
REMARK   25  A    between atoms: _58  and  _59
REMARK   26  A    between atoms: _58  and  _61
REMARK   27  A    between atoms: _61  and  _62
REMARK   28  A    between atoms: _62  and  _63
REMARK   29  A    between atoms: _68  and  _70
REMARK   30  A    between atoms: _70  and  _71
REMARK   31  A    between atoms: _70  and  _73
REMARK   32  A    between atoms: _73  and  _74
REMARK   33  A    between atoms: _74  and  _75
REMARK   34  A    between atoms: _75  and  _76
REMARK   35  A    between atoms: _85  and  _87
REMARK   36  A    between atoms: _87  and  _88
REMARK   37  A    between atoms: _87  and  _90
REMARK   38  A    between atoms: _90  and  _91
REMARK   39  A    between atoms: _96  and  _98
REMARK   40  A    between atoms: _98  and  _99
REMARK   41  A    between atoms: _98  and  _101
REMARK   42  A    between atoms: _101  and  _102
REMARK   43  A    between atoms: _105  and  _107
REMARK   44  A    between atoms: _107  and  _108
REMARK   45  A    between atoms: _107  and  _110
REMARK   46  A    between atoms: _110  and  _111
REMARK   47  A    between atoms: _111  and  _146
REMARK   48  A    between atoms: _112  and  _114
REMARK   49  A    between atoms: _114  and  _115
REMARK   50  A    between atoms: _117  and  _119
REMARK   51  A    between atoms: _119  and  _120
REMARK   52  A    between atoms: _123  and  _125
REMARK   53  A    between atoms: _125  and  _126
REMARK   54  A    between atoms: _129  and  _131
REMARK   55  A    between atoms: _131  and  _132
REMARK   56  A    between atoms: _131  and  _134
REMARK   57  A    between atoms: _134  and  _135
REMARK   58  A    between atoms: _140  and  _142
REMARK   59  A    between atoms: _142  and  _143
REMARK   60  A    between atoms: _142  and  _145
REMARK   61  A    between atoms: _145  and  _146
REMARK   62  A    between atoms: _147  and  _149
REMARK   63  A    between atoms: _149  and  _150
REMARK   64  A    between atoms: _149  and  _152
REMARK   65  A    between atoms: _152  and  _153
REMARK   66  A    between atoms: _159  and  _161
REMARK   67  A    between atoms: _161  and  _162
REMARK   68  A    between atoms: _161  and  _164
REMARK   69  A    between atoms: _164  and  _165
REMARK   70  A    between atoms: _170  and  _171
REMARK   71  A    between atoms: _173  and  _175
REMARK   72  A    between atoms: _175  and  _176
REMARK   73  A    between atoms: _178  and  _180
REMARK   74  A    between atoms: _180  and  _181
REMARK   75  A    between atoms: _180  and  _183
REMARK   76  A    between atoms: _186  and  _188
REMARK   77  A    between atoms: _188  and  _189
REMARK   78  A    between atoms: _192  and  _194
REMARK   79  A    between atoms: _194  and  _195
REMARK   80  A    between atoms: _194  and  _197
REMARK   81  A    between atoms: _197  and  _198
REMARK   82  A    between atoms: _201  and  _203
REMARK   83  A    between atoms: _203  and  _204
REMARK   84  A    between atoms: _203  and  _206
REMARK   85  A    between atoms: _209  and  _211
REMARK   86  A    between atoms: _211  and  _212
REMARK   87  A    between atoms: _211  and  _214
REMARK   88  A    between atoms: _214  and  _215
REMARK   89  A    between atoms: _225  and  _227
REMARK   90  A    between atoms: _227  and  _228
REMARK   91  A    between atoms: _230  and  _232
REMARK   92  A    between atoms: _232  and  _233
REMARK   93  A    between atoms: _232  and  _235
REMARK   94  A    between atoms: _235  and  _236
REMARK   95  A    between atoms: _241  and  _242
REMARK   96  A    between atoms: _244  and  _246
REMARK   97  A    between atoms: _246  and  _247
REMARK   98  A    between atoms: _246  and  _249
REMARK   99  A    between atoms: _249  and  _250
REMARK  100  A    between atoms: _250  and  _251
REMARK  101  A    between atoms: _251  and  _252
REMARK  102  A    between atoms: _252  and  _253
REMARK  103  A    between atoms: _257  and  _259
REMARK  104  A    between atoms: _259  and  _260
REMARK  105  A    between atoms: _259  and  _262
REMARK  106  A    between atoms: _262  and  _263
REMARK  107  A    between atoms: _266  and  _268
REMARK  108  A    between atoms: _268  and  _269
REMARK  109  A    between atoms: _268  and  _271
REMARK  110  A    between atoms: _271  and  _272
REMARK  111  A    between atoms: _272  and  _273
REMARK  112  A    between atoms: _273  and  _274
REMARK  113  A    between atoms: _283  and  _285
REMARK  114  A    between atoms: _285  and  _286
REMARK  115  A    between atoms: _285  and  _288
REMARK  116  A    between atoms: _288  and  _289
REMARK  117  A    between atoms: _292  and  _294
REMARK  118  A    between atoms: _294  and  _295
REMARK  119  A    between atoms: _294  and  _297
REMARK  120  A    between atoms: _297  and  _298
REMARK  121  A    between atoms: _298  and  _299
REMARK  122  A    between atoms: _299  and  _300
REMARK  123  A    between atoms: _300  and  _301
REMARK  124  A    between atoms: _305  and  _307
REMARK  125  A    between atoms: _307  and  _308
REMARK  126  A    between atoms: _307  and  _310
REMARK  127  A    between atoms: _310  and  _311
REMARK  128  A    between atoms: _314  and  _316
REMARK  129  A    between atoms: _316  and  _317
REMARK  130  A    between atoms: _316  and  _319
REMARK  131  A    between atoms: _319  and  _320
REMARK  132  A    between atoms: _320  and  _321
REMARK  133  A    between atoms: _326  and  _328
REMARK  134  A    between atoms: _328  and  _329
REMARK  135  A    between atoms: _328  and  _331
REMARK  136  A    between atoms: _331  and  _332
REMARK  137  A    between atoms: _335  and  _337
REMARK  138  A    between atoms: _337  and  _338
REMARK  139  A    between atoms: _337  and  _340
REMARK  140  A    between atoms: _340  and  _341
REMARK  141  A    between atoms: _346  and  _347
REMARK  142  A    between atoms: _349  and  _351
REMARK  143  A    between atoms: _351  and  _352
REMARK  144  A    between atoms: _351  and  _354
REMARK  145  A    between atoms: _354  and  _355
REMARK  146  A    between atoms: _358  and  _360
REMARK  147  A    between atoms: _360  and  _361
REMARK  148  A    between atoms: _360  and  _363
REMARK  149  A    between atoms: _365  and  _367
REMARK  150  A    between atoms: _367  and  _368
REMARK  151  A    between atoms: _371  and  _373
REMARK  152  A    between atoms: _373  and  _374
REMARK  153  A    between atoms: _373  and  _376
REMARK  154  A    between atoms: _376  and  _377
REMARK  155  A    between atoms: _380  and  _382
REMARK  156  A    between atoms: _382  and  _383
REMARK  157  A    between atoms: _386  and  _388
REMARK  158  A    between atoms: _388  and  _389
REMARK  159  A    between atoms: _388  and  _391
REMARK  160  A    between atoms: _391  and  _392
REMARK  161  A    between atoms: _392  and  _506
REMARK  162  A    between atoms: _393  and  _395
REMARK  163  A    between atoms: _395  and  _396
REMARK  164  A    between atoms: _395  and  _398
REMARK  165  A    between atoms: _398  and  _399
REMARK  166  A    between atoms: _399  and  _400
REMARK  167  A    between atoms: _400  and  _401
REMARK  168  A    between atoms: _401  and  _402
REMARK  169  A    between atoms: _406  and  _408
REMARK  170  A    between atoms: _408  and  _409
REMARK  171  A    between atoms: _411  and  _413
REMARK  172  A    between atoms: _413  and  _414
REMARK  173  A    between atoms: _413  and  _416
REMARK  174  A    between atoms: _416  and  _417
REMARK  175  A    between atoms: _420  and  _422
REMARK  176  A    between atoms: _422  and  _423
REMARK  177  A    between atoms: _422  and  _425
REMARK  178  A    between atoms: _425  and  _426
REMARK  179  A    between atoms: _428  and  _430
REMARK  180  A    between atoms: _430  and  _431
REMARK  181  A    between atoms: _433  and  _435
REMARK  182  A    between atoms: _435  and  _436
REMARK  183  A    between atoms: _438  and  _440
REMARK  184  A    between atoms: _440  and  _441
REMARK  185  A    between atoms: _440  and  _443
REMARK  186  A    between atoms: _443  and  _444
REMARK  187  A    between atoms: _447  and  _449
REMARK  188  A    between atoms: _449  and  _450
REMARK  189  A    between atoms: _449  and  _452
REMARK  190  A    between atoms: _452  and  _453
REMARK  191  A    between atoms: _456  and  _458
REMARK  192  A    between atoms: _458  and  _459
REMARK  193  A    between atoms: _458  and  _461
REMARK  194  A    between atoms: _461  and  _462
REMARK  195  A    between atoms: _464  and  _466
REMARK  196  A    between atoms: _466  and  _467
REMARK  197  A    between atoms: _466  and  _469
REMARK  198  A    between atoms: _469  and  _470
REMARK  199  A    between atoms: _480  and  _482
REMARK  200  A    between atoms: _482  and  _483
REMARK  201  A    between atoms: _485  and  _487
REMARK  202  A    between atoms: _487  and  _488
REMARK  203  A    between atoms: _487  and  _490
REMARK  204  A    between atoms: _490  and  _491
REMARK  205  A    between atoms: _491  and  _492
REMARK  206  A    between atoms: _495  and  _497
REMARK  207  A    between atoms: _497  and  _498
REMARK  208  A    between atoms: _500  and  _502
REMARK  209  A    between atoms: _502  and  _503
REMARK  210  A    between atoms: _502  and  _505
REMARK  211  A    between atoms: _505  and  _506
REMARK  212  A    between atoms: _507  and  _509
REMARK  213  A    between atoms: _509  and  _510
REMARK  214  A    between atoms: _513  and  _515
REMARK  215  A    between atoms: _515  and  _516
REMARK  216  A    between atoms: _515  and  _518
REMARK  217  A    between atoms: _518  and  _519
REMARK  218  A    between atoms: _519  and  _520
REMARK  219  A    between atoms: _525  and  _527
REMARK  220  A    between atoms: _527  and  _528
REMARK  221  A    between atoms: _527  and  _530
REMARK  222  A    between atoms: _530  and  _531
REMARK  223  A    between atoms: _531  and  _532
REMARK  224  A    between atoms: _532  and  _533
REMARK  225  A    between atoms: _543  and  _544
REMARK  226  A    between atoms: _549  and  _551
REMARK  227  A    between atoms: _551  and  _552
REMARK  228  A    between atoms: _554  and  _556
REMARK  229  A    between atoms: _556  and  _557
REMARK  230  A    between atoms: _556  and  _559
REMARK  231  A    between atoms: _562  and  _564
REMARK  232  A    between atoms: _564  and  _565
REMARK  233  A    between atoms: _564  and  _567
REMARK  234  A    between atoms: _567  and  _568
REMARK  235  A    between atoms: _573  and  _574
REMARK  236  A    between atoms: _576  and  _578
REMARK  237  A    between atoms: _578  and  _579
REMARK  238  A    between atoms: _578  and  _581
REMARK  239  A    between atoms: _581  and  _582
REMARK                            x       y       z     vdW  Elec       q    Type
REMARK                         _______ _______ _______ _____ _____    ______ ____
ROOT
ATOM      1  CA  ALA A   1      49.462  25.117  20.718  0.00  0.00    +0.133 C 
ATOM      2  CB  ALA A   1      49.997  24.859  19.332  0.00  0.00    +0.027 C 
ENDROOT
BRANCH   1   3
ATOM      3  N   ALA A   1      50.527  25.644  21.551  0.00  0.00    -0.239 NA
ATOM      4  H   ALA A   1      51.475  25.774  21.144  0.00  0.00    +0.142 HD
ENDBRANCH   1   3
BRANCH   1   5
ATOM      5  C   ALA A   1      48.869  23.839  21.281  0.00  0.00    +0.224 C 
ATOM      6  O   ALA A   1      47.660  23.691  21.360  0.00  0.00    -0.287 OA
ENDBRANCH   1   5
TORSDOF 2
REMARK  Name = ../refined-set-2016/4crf/4crf_pocket.pdb
REMARK  239 active torsions:
REMARK  status: ('A' for Active; 'I' for Inactive)
REMARK    1  A    between atoms: _1  and  _5
REMARK    2  A    between atoms: _5  and  _6
REMARK    3  A    between atoms: _5  and  _8
REMARK    4  A    between atoms: _8  and  _9
REMARK    5  A    between atoms: _12  and  _14
REMARK    6  A    between atoms: _14  and  _15
REMARK    7  A    between atoms: _14  and  _17
REMARK    8  A    between atoms: _20  and  _22
REMARK    9  A    between atoms: _22  and  _23
REMARK   10  A    between atoms: _22  and  _25
REMARK   11  A    between atoms: _25  and  _26
REMARK   12  A    between atoms: _29  and  _31
REMARK   13  A    between atoms: _31  and  _32
REMARK   14  A    between atoms: _31  and  _34
REMARK   15  A    between atoms: _34  and  _35
REMARK   16  A    between atoms: _38  and  _40
REMARK   17  A    between atoms: _40  and  _41
REMARK   18  A    between atoms: _40  and  _43
REMARK   19  A    between atoms: _43  and  _44
REMARK   20  A    between atoms: _47  and  _49
REMARK   21  A    between atoms: _49  and  _50
REMARK   22  A    between atoms: _49  and  _52
REMARK   23  A    between atoms: _52  and  _53
REMARK   24  A    between atoms: _56  and  _58
REMARK   25  A    between atoms: _58  and  _59
REMARK   26  A    between atoms: _58  and  _61
REMARK   27  A    between atoms: _61  and  _62
REMARK   28  A    between atoms: _62  and  _63
REMARK   29  A    between atoms: _68  and  _70
REMARK   30  A    between atoms: _70  and  _71
REMARK   31  A    between atoms: _70  and  _73
REMARK   32  A    between atoms: _73  and  _74
REMARK   33  A    between atoms: _74  and  _75
REMARK   34  A    between atoms: _75  and  _76
REMARK   35  A    between atoms: _85  and  _87
REMARK   36  A    between atoms: _87  and  _88
REMARK   37  A    between atoms: _87  and  _90
REMARK   38  A    between atoms: _90  and  _91
REMARK   39  A    between atoms: _96  and  _98
REMARK   40  A    between atoms: _98  and  _99
REMARK   41  A    between atoms: _98  and  _101
REMARK   42  A    between atoms: _101  and  _102
REMARK   43  A    between atoms: _105  and  _107
REMARK   44  A    between atoms: _107  and  _108
REMARK   45  A    between atoms: _107  and  _110
REMARK   46  A    between atoms: _110  and  _111
REMARK   47  A    between atoms: _111  and  _146
REMARK   48  A    between atoms: _112  and  _114
REMARK   49  A    between atoms: _114  and  _115
REMARK   50  A    between atoms: _117  and  _119
REMARK   51  A    between atoms: _119  and  _120
REMARK   52  A    between atoms: _123  and  _125
REMARK   53  A    between atoms: _125  and  _126
REMARK   54  A    between atoms: _129  and  _131
REMARK   55  A    between atoms: _131  and  _132
REMARK   56  A    between atoms: _131  and  _134
REMARK   57  A    between atoms: _134  and  _135
REMARK   58  A    between atoms: _140  and  _142
REMARK   59  A    between atoms: _142  and  _143
REMARK   60  A    between atoms: _142  and  _145
REMARK   61  A    between atoms: _145  and  _146
REMARK   62  A    between atoms: _147  and  _149
REMARK   63  A    between atoms: _149  and  _150
REMARK   64  A    between atoms: _149  and  _152
REMARK   65  A    between atoms: _152  and  _153
REMARK   66  A    between atoms: _159  and  _161
REMARK   67  A    between atoms: _161  and  _162
REMARK   68  A    between atoms: _161  and  _164
REMARK   69  A    between atoms: _164  and  _165
REMARK   70  A    between atoms: _170  and  _171
REMARK   71  A    between atoms: _173  and  _175
REMARK   72  A    between atoms: _175  and  _176
REMARK   73  A    between atoms: _178  and  _180
REMARK   74  A    between atoms: _180  and  _181
REMARK   75  A    between atoms: _180  and  _183
REMARK   76  A    between atoms: _186  and  _188
REMARK   77  A    between atoms: _188  and  _189
REMARK   78  A    between atoms: _192  and  _194
REMARK   79  A    between atoms: _194  and  _195
REMARK   80  A    between atoms: _194  and  _197
REMARK   81  A    between atoms: _197  and  _198
REMARK   82  A    between atoms: _201  and  _203
REMARK   83  A    between atoms: _203  and  _204
REMARK   84  A    between atoms: _203  and  _206
REMARK   85  A    between atoms: _209  and  _211
REMARK   86  A    between atoms: _211  and  _212
REMARK   87  A    between atoms: _211  and  _214
REMARK   88  A    between atoms: _214  and  _215
REMARK   89  A    between atoms: _225  and  _227
REMARK   90  A    between atoms: _227  and  _228
REMARK   91  A    between atoms: _230  and  _232
REMARK   92  A    between atoms: _232  and  _233
REMARK   93  A    between atoms: _232  and  _235
REMARK   94  A    between atoms: _235  and  _236
REMARK   95  A    between atoms: _241  and  _242
REMARK   96  A    between atoms: _244  and  _246
REMARK   97  A    between atoms: _246  and  _247
REMARK   98  A    between atoms: _246  and  _249
REMARK   99  A    between atoms: _249  and  _250
REMARK  100  A    between atoms: _250  and  _251
REMARK  101  A    between atoms: _251  and  _252
REMARK  102  A    between atoms: _252  and  _253
REMARK  103  A    between atoms: _257  and  _259
REMARK  104  A    between atoms: _259  and  _260
REMARK  105  A    between atoms: _259  and  _262
REMARK  106  A    between atoms: _262  and  _263
REMARK  107  A    between atoms: _266  and  _268
REMARK  108  A    between atoms: _268  and  _269
REMARK  109  A    between atoms: _268  and  _271
REMARK  110  A    between atoms: _271  and  _272
REMARK  111  A    between atoms: _272  and  _273
REMARK  112  A    between atoms: _273  and  _274
REMARK  113  A    between atoms: _283  and  _285
REMARK  114  A    between atoms: _285  and  _286
REMARK  115  A    between atoms: _285  and  _288
REMARK  116  A    between atoms: _288  and  _289
REMARK  117  A    between atoms: _292  and  _294
REMARK  118  A    between atoms: _294  and  _295
REMARK  119  A    between atoms: _294  and  _297
REMARK  120  A    between atoms: _297  and  _298
REMARK  121  A    between atoms: _298  and  _299
REMARK  122  A    between atoms: _299  and  _300
REMARK  123  A    between atoms: _300  and  _301
REMARK  124  A    between atoms: _305  and  _307
REMARK  125  A    between atoms: _307  and  _308
REMARK  126  A    between atoms: _307  and  _310
REMARK  127  A    between atoms: _310  and  _311
REMARK  128  A    between atoms: _314  and  _316
REMARK  129  A    between atoms: _316  and  _317
REMARK  130  A    between atoms: _316  and  _319
REMARK  131  A    between atoms: _319  and  _320
REMARK  132  A    between atoms: _320  and  _321
REMARK  133  A    between atoms: _326  and  _328
REMARK  134  A    between atoms: _328  and  _329
REMARK  135  A    between atoms: _328  and  _331
REMARK  136  A    between atoms: _331  and  _332
REMARK  137  A    between atoms: _335  and  _337
REMARK  138  A    between atoms: _337  and  _338
REMARK  139  A    between atoms: _337  and  _340
REMARK  140  A    between atoms: _340  and  _341
REMARK  141  A    between atoms: _346  and  _347
REMARK  142  A    between atoms: _349  and  _351
REMARK  143  A    between atoms: _351  and  _352
REMARK  144  A    between atoms: _351  and  _354
REMARK  145  A    between atoms: _354  and  _355
REMARK  146  A    between atoms: _358  and  _360
REMARK  147  A    between atoms: _360  and  _361
REMARK  148  A    between atoms: _360  and  _363
REMARK  149  A    between atoms: _365  and  _367
REMARK  150  A    between atoms: _367  and  _368
REMARK  151  A    between atoms: _371  and  _373
REMARK  152  A    between atoms: _373  and  _374
REMARK  153  A    between atoms: _373  and  _376
REMARK  154  A    between atoms: _376  and  _377
REMARK  155  A    between atoms: _380  and  _382
REMARK  156  A    between atoms: _382  and  _383
REMARK  157  A    between atoms: _386  and  _388
REMARK  158  A    between atoms: _388  and  _389
REMARK  159  A    between atoms: _388  and  _391
REMARK  160  A    between atoms: _391  and  _392
REMARK  161  A    between atoms: _392  and  _506
REMARK  162  A    between atoms: _393  and  _395
REMARK  163  A    between atoms: _395  and  _396
REMARK  164  A    between atoms: _395  and  _398
REMARK  165  A    between atoms: _398  and  _399
REMARK  166  A    between atoms: _399  and  _400
REMARK  167  A    between atoms: _400  and  _401
REMARK  168  A    between atoms: _401  and  _402
REMARK  169  A    between atoms: _406  and  _408
REMARK  170  A    between atoms: _408  and  _409
REMARK  171  A    between atoms: _411  and  _413
REMARK  172  A    between atoms: _413  and  _414
REMARK  173  A    between atoms: _413  and  _416
REMARK  174  A    between atoms: _416  and  _417
REMARK  175  A    between atoms: _420  and  _422
REMARK  176  A    between atoms: _422  and  _423
REMARK  177  A    between atoms: _422  and  _425
REMARK  178  A    between atoms: _425  and  _426
REMARK  179  A    between atoms: _428  and  _430
REMARK  180  A    between atoms: _430  and  _431
REMARK  181  A    between atoms: _433  and  _435
REMARK  182  A    between atoms: _435  and  _436
REMARK  183  A    between atoms: _438  and  _440
REMARK  184  A    between atoms: _440  and  _441
REMARK  185  A    between atoms: _440  and  _443
REMARK  186  A    between atoms: _443  and  _444
REMARK  187  A    between atoms: _447  and  _449
REMARK  188  A    between atoms: _449  and  _450
REMARK  189  A    between atoms: _449  and  _452
REMARK  190  A    between atoms: _452  and  _453
REMARK  191  A    between atoms: _456  and  _458
REMARK  192  A    between atoms: _458  and  _459
REMARK  193  A    between atoms: _458  and  _461
REMARK  194  A    between atoms: _461  and  _462
REMARK  195  A    between atoms: _464  and  _466
REMARK  196  A    between atoms: _466  and  _467
REMARK  197  A    between atoms: _466  and  _469
REMARK  198  A    between atoms: _469  and  _470
REMARK  199  A    between atoms: _480  and  _482
REMARK  200  A    between atoms: _482  and  _483
REMARK  201  A    between atoms: _485  and  _487
REMARK  202  A    between atoms: _487  and  _488
REMARK  203  A    between atoms: _487  and  _490
REMARK  204  A    between atoms: _490  and  _491
REMARK  205  A    between atoms: _491  and  _492
REMARK  206  A    between atoms: _495  and  _497
REMARK  207  A    between atoms: _497  and  _498
REMARK  208  A    between atoms: _500  and  _502
REMARK  209  A    between atoms: _502  and  _503
REMARK  210  A    between atoms: _502  and  _505
REMARK  211  A    between atoms: _505  and  _506
REMARK  212  A    between atoms: _507  and  _509
REMARK  213  A    between atoms: _509  and  _510
REMARK  214  A    between atoms: _513  and  _515
REMARK  215  A    between atoms: _515  and  _516
REMARK  216  A    between atoms: _515  and  _518
REMARK  217  A    between atoms: _518  and  _519
REMARK  218  A    between atoms: _519  and  _520
REMARK  219  A    between atoms: _525  and  _527
REMARK  220  A    between atoms: _527  and  _528
REMARK  221  A    between atoms: _527  and  _530
REMARK  222  A    between atoms: _530  and  _531
REMARK  223  A    between atoms: _531  and  _532
REMARK  224  A    between atoms: _532  and  _533
REMARK  225  A    between atoms: _543  and  _544
REMARK  226  A    between atoms: _549  and  _551
REMARK  227  A    between atoms: _551  and  _552
REMARK  228  A    between atoms: _554  and  _556
REMARK  229  A    between atoms: _556  and  _557
REMARK  230  A    between atoms: _556  and  _559
REMARK  231  A    between atoms: _562  and  _564
REMARK  232  A    between atoms: _564  and  _565
REMARK  233  A    between atoms: _564  and  _567
REMARK  234  A    between atoms: _567  and  _568
REMARK  235  A    between atoms: _573  and  _574
REMARK  236  A    between atoms: _576  and  _578
REMARK  237  A    between atoms: _578  and  _579
REMARK  238  A    between atoms: _578  and  _581
REMARK  239  A    between atoms: _581  and  _582
REMARK                            x       y       z     vdW  Elec       q    Type
REMARK                         _______ _______ _______ _____ _____    ______ ____
ROOT
ATOM      1  CA  ASP A   1      45.557  28.563  20.479  0.00  0.00    +0.144 C 
ENDROOT
BRANCH   1   2
ATOM      2  N   ASP A   1      44.757  28.112  21.597  0.00  0.00    -0.239 NA
ATOM      3  H   ASP A   1      44.318  27.170  21.550  0.00  0.00    +0.142 HD
ENDBRANCH   1   2
BRANCH   1   4
ATOM      4  C   ASP A   1      44.686  29.404  19.589  0.00  0.00    +0.225 C 
ATOM      5  O   ASP A   1      44.230  28.991  18.533  0.00  0.00    -0.287 OA
ENDBRANCH   1   4
BRANCH   1   6
ATOM      6  CB  ASP A   1      46.087  27.355  19.716  0.00  0.00    +0.139 C 
BRANCH   6   7
ATOM      7  CG  ASP A   1      47.125  27.711  18.702  0.00  0.00    +0.367 C 
ATOM      8  OD2 ASP A   1      47.678  28.852  18.749  0.00  0.00    -0.246 OA
ATOM      9  OD1 ASP A   1      47.407  26.818  17.866  0.00  0.00    -0.246 OA
ENDBRANCH   6   7
ENDBRANCH   1   6
TORSDOF 4
REMARK  Name = ../refined-set-2016/4crf/4crf_pocket.pdb
REMARK  239 active torsions:
REMARK  status: ('A' for Active; 'I' for Inactive)
REMARK    1  A    between atoms: _1  and  _5
REMARK    2  A    between atoms: _5  and  _6
REMARK    3  A    between atoms: _5  and  _8
REMARK    4  A    between atoms: _8  and  _9
REMARK    5  A    between atoms: _12  and  _14
REMARK    6  A    between atoms: _14  and  _15
REMARK    7  A    between atoms: _14  and  _17
REMARK    8  A    between atoms: _20  and  _22
REMARK    9  A    between atoms: _22  and  _23
REMARK   10  A    between atoms: _22  and  _25
REMARK   11  A    between atoms: _25  and  _26
REMARK   12  A    between atoms: _29  and  _31
REMARK   13  A    between atoms: _31  and  _32
REMARK   14  A    between atoms: _31  and  _34
REMARK   15  A    between atoms: _34  and  _35
REMARK   16  A    between atoms: _38  and  _40
REMARK   17  A    between atoms: _40  and  _41
REMARK   18  A    between atoms: _40  and  _43
REMARK   19  A    between atoms: _43  and  _44
REMARK   20  A    between atoms: _47  and  _49
REMARK   21  A    between atoms: _49  and  _50
REMARK   22  A    between atoms: _49  and  _52
REMARK   23  A    between atoms: _52  and  _53
REMARK   24  A    between atoms: _56  and  _58
REMARK   25  A    between atoms: _58  and  _59
REMARK   26  A    between atoms: _58  and  _61
REMARK   27  A    between atoms: _61  and  _62
REMARK   28  A    between atoms: _62  and  _63
REMARK   29  A    between atoms: _68  and  _70
REMARK   30  A    between atoms: _70  and  _71
REMARK   31  A    between atoms: _70  and  _73
REMARK   32  A    between atoms: _73  and  _74
REMARK   33  A    between atoms: _74  and  _75
REMARK   34  A    between atoms: _75  and  _76
REMARK   35  A    between atoms: _85  and  _87
REMARK   36  A    between atoms: _87  and  _88
REMARK   37  A    between atoms: _87  and  _90
REMARK   38  A    between atoms: _90  and  _91
REMARK   39  A    between atoms: _96  and  _98
REMARK   40  A    between atoms: _98  and  _99
REMARK   41  A    between atoms: _98  and  _101
REMARK   42  A    between atoms: _101  and  _102
REMARK   43  A    between atoms: _105  and  _107
REMARK   44  A    between atoms: _107  and  _108
REMARK   45  A    between atoms: _107  and  _110
REMARK   46  A    between atoms: _110  and  _111
REMARK   47  A    between atoms: _111  and  _146
REMARK   48  A    between atoms: _112  and  _114
REMARK   49  A    between atoms: _114  and  _115
REMARK   50  A    between atoms: _117  and  _119
REMARK   51  A    between atoms: _119  and  _120
REMARK   52  A    between atoms: _123  and  _125
REMARK   53  A    between atoms: _125  and  _126
REMARK   54  A    between atoms: _129  and  _131
REMARK   55  A    between atoms: _131  and  _132
REMARK   56  A    between atoms: _131  and  _134
REMARK   57  A    between atoms: _134  and  _135
REMARK   58  A    between atoms: _140  and  _142
REMARK   59  A    between atoms: _142  and  _143
REMARK   60  A    between atoms: _142  and  _145
REMARK   61  A    between atoms: _145  and  _146
REMARK   62  A    between atoms: _147  and  _149
REMARK   63  A    between atoms: _149  and  _150
REMARK   64  A    between atoms: _149  and  _152
REMARK   65  A    between atoms: _152  and  _153
REMARK   66  A    between atoms: _159  and  _161
REMARK   67  A    between atoms: _161  and  _162
REMARK   68  A    between atoms: _161  and  _164
REMARK   69  A    between atoms: _164  and  _165
REMARK   70  A    between atoms: _170  and  _171
REMARK   71  A    between atoms: _173  and  _175
REMARK   72  A    between atoms: _175  and  _176
REMARK   73  A    between atoms: _178  and  _180
REMARK   74  A    between atoms: _180  and  _181
REMARK   75  A    between atoms: _180  and  _183
REMARK   76  A    between atoms: _186  and  _188
REMARK   77  A    between atoms: _188  and  _189
REMARK   78  A    between atoms: _192  and  _194
REMARK   79  A    between atoms: _194  and  _195
REMARK   80  A    between atoms: _194  and  _197
REMARK   81  A    between atoms: _197  and  _198
REMARK   82  A    between atoms: _201  and  _203
REMARK   83  A    between atoms: _203  and  _204
REMARK   84  A    between atoms: _203  and  _206
REMARK   85  A    between atoms: _209  and  _211
REMARK   86  A    between atoms: _211  and  _212
REMARK   87  A    between atoms: _211  and  _214
REMARK   88  A    between atoms: _214  and  _215
REMARK   89  A    between atoms: _225  and  _227
REMARK   90  A    between atoms: _227  and  _228
REMARK   91  A    between atoms: _230  and  _232
REMARK   92  A    between atoms: _232  and  _233
REMARK   93  A    between atoms: _232  and  _235
REMARK   94  A    between atoms: _235  and  _236
REMARK   95  A    between atoms: _241  and  _242
REMARK   96  A    between atoms: _244  and  _246
REMARK   97  A    between atoms: _246  and  _247
REMARK   98  A    between atoms: _246  and  _249
REMARK   99  A    between atoms: _249  and  _250
REMARK  100  A    between atoms: _250  and  _251
REMARK  101  A    between atoms: _251  and  _252
REMARK  102  A    between atoms: _252  and  _253
REMARK  103  A    between atoms: _257  and  _259
REMARK  104  A    between atoms: _259  and  _260
REMARK  105  A    between atoms: _259  and  _262
REMARK  106  A    between atoms: _262  and  _263
REMARK  107  A    between atoms: _266  and  _268
REMARK  108  A    between atoms: _268  and  _269
REMARK  109  A    between atoms: _268  and  _271
REMARK  110  A    between atoms: _271  and  _272
REMARK  111  A    between atoms: _272  and  _273
REMARK  112  A    between atoms: _273  and  _274
REMARK  113  A    between atoms: _283  and  _285
REMARK  114  A    between atoms: _285  and  _286
REMARK  115  A    between atoms: _285  and  _288
REMARK  116  A    between atoms: _288  and  _289
REMARK  117  A    between atoms: _292  and  _294
REMARK  118  A    between atoms: _294  and  _295
REMARK  119  A    between atoms: _294  and  _297
REMARK  120  A    between atoms: _297  and  _298
REMARK  121  A    between atoms: _298  and  _299
REMARK  122  A    between atoms: _299  and  _300
REMARK  123  A    between atoms: _300  and  _301
REMARK  124  A    between atoms: _305  and  _307
REMARK  125  A    between atoms: _307  and  _308
REMARK  126  A    between atoms: _307  and  _310
REMARK  127  A    between atoms: _310  and  _311
REMARK  128  A    between atoms: _314  and  _316
REMARK  129  A    between atoms: _316  and  _317
REMARK  130  A    between atoms: _316  and  _319
REMARK  131  A    between atoms: _319  and  _320
REMARK  132  A    between atoms: _320  and  _321
REMARK  133  A    between atoms: _326  and  _328
REMARK  134  A    between atoms: _328  and  _329
REMARK  135  A    between atoms: _328  and  _331
REMARK  136  A    between atoms: _331  and  _332
REMARK  137  A    between atoms: _335  and  _337
REMARK  138  A    between atoms: _337  and  _338
REMARK  139  A    between atoms: _337  and  _340
REMARK  140  A    between atoms: _340  and  _341
REMARK  141  A    between atoms: _346  and  _347
REMARK  142  A    between atoms: _349  and  _351
REMARK  143  A    between atoms: _351  and  _352
REMARK  144  A    between atoms: _351  and  _354
REMARK  145  A    between atoms: _354  and  _355
REMARK  146  A    between atoms: _358  and  _360
REMARK  147  A    between atoms: _360  and  _361
REMARK  148  A    between atoms: _360  and  _363
REMARK  149  A    between atoms: _365  and  _367
REMARK  150  A    between atoms: _367  and  _368
REMARK  151  A    between atoms: _371  and  _373
REMARK  152  A    between atoms: _373  and  _374
REMARK  153  A    between atoms: _373  and  _376
REMARK  154  A    between atoms: _376  and  _377
REMARK  155  A    between atoms: _380  and  _382
REMARK  156  A    between atoms: _382  and  _383
REMARK  157  A    between atoms: _386  and  _388
REMARK  158  A    between atoms: _388  and  _389
REMARK  159  A    between atoms: _388  and  _391
REMARK  160  A    between atoms: _391  and  _392
REMARK  161  A    between atoms: _392  and  _506
REMARK  162  A    between atoms: _393  and  _395
REMARK  163  A    between atoms: _395  and  _396
REMARK  164  A    between atoms: _395  and  _398
REMARK  165  A    between atoms: _398  and  _399
REMARK  166  A    between atoms: _399  and  _400
REMARK  167  A    between atoms: _400  and  _401
REMARK  168  A    between atoms: _401  and  _402
REMARK  169  A    between atoms: _406  and  _408
REMARK  170  A    between atoms: _408  and  _409
REMARK  171  A    between atoms: _411  and  _413
REMARK  172  A    between atoms: _413  and  _414
REMARK  173  A    between atoms: _413  and  _416
REMARK  174  A    between atoms: _416  and  _417
REMARK  175  A    between atoms: _420  and  _422
REMARK  176  A    between atoms: _422  and  _423
REMARK  177  A    between atoms: _422  and  _425
REMARK  178  A    between atoms: _425  and  _426
REMARK  179  A    between atoms: _428  and  _430
REMARK  180  A    between atoms: _430  and  _431
REMARK  181  A    between atoms: _433  and  _435
REMARK  182  A    between atoms: _435  and  _436
REMARK  183  A    between atoms: _438  and  _440
REMARK  184  A    between atoms: _440  and  _441
REMARK  185  A    between atoms: _440  and  _443
REMARK  186  A    between atoms: _443  and  _444
REMARK  187  A    between atoms: _447  and  _449
REMARK  188  A    between atoms: _449  and  _450
REMARK  189  A    between atoms: _449  and  _452
REMARK  190  A    between atoms: _452  and  _453
REMARK  191  A    between atoms: _456  and  _458
REMARK  192  A    between atoms: _458  and  _459
REMARK  193  A    between atoms: _458  and  _461
REMARK  194  A    between atoms: _461  and  _462
REMARK  195  A    between atoms: _464  and  _466
REMARK  196  A    between atoms: _466  and  _467
REMARK  197  A    between atoms: _466  and  _469
REMARK  198  A    between atoms: _469  and  _470
REMARK  199  A    between atoms: _480  and  _482
REMARK  200  A    between atoms: _482  and  _483
REMARK  201  A    between atoms: _485  and  _487
REMARK  202  A    between atoms: _487  and  _488
REMARK  203  A    between atoms: _487  and  _490
REMARK  204  A    between atoms: _490  and  _491
REMARK  205  A    between atoms: _491  and  _492
REMARK  206  A    between atoms: _495  and  _497
REMARK  207  A    between atoms: _497  and  _498
REMARK  208  A    between atoms: _500  and  _502
REMARK  209  A    between atoms: _502  and  _503
REMARK  210  A    between atoms: _502  and  _505
REMARK  211  A    between atoms: _505  and  _506
REMARK  212  A    between atoms: _507  and  _509
REMARK  213  A    between atoms: _509  and  _510
REMARK  214  A    between atoms: _513  and  _515
REMARK  215  A    between atoms: _515  and  _516
REMARK  216  A    between atoms: _515  and  _518
REMARK  217  A    between atoms: _518  and  _519
REMARK  218  A    between atoms: _519  and  _520
REMARK  219  A    between atoms: _525  and  _527
REMARK  220  A    between atoms: _527  and  _528
REMARK  221  A    between atoms: _527  and  _530
REMARK  222  A    between atoms: _530  and  _531
REMARK  223  A    between atoms: _531  and  _532
REMARK  224  A    between atoms: _532  and  _533
REMARK  225  A    between atoms: _543  and  _544
REMARK  226  A    between atoms: _549  and  _551
REMARK  227  A    between atoms: _551  and  _552
REMARK  228  A    between atoms: _554  and  _556
REMARK  229  A    between atoms: _556  and  _557
REMARK  230  A    between atoms: _556  and  _559
REMARK  231  A    between atoms: _562  and  _564
REMARK  232  A    between atoms: _564  and  _565
REMARK  233  A    between atoms: _564  and  _567
REMARK  234  A    between atoms: _567  and  _568
REMARK  235  A    between atoms: _573  and  _574
REMARK  236  A    between atoms: _576  and  _578
REMARK  237  A    between atoms: _578  and  _579
REMARK  238  A    between atoms: _578  and  _581
REMARK  239  A    between atoms: _581  and  _582
REMARK                            x       y       z     vdW  Elec       q    Type
REMARK                         _______ _______ _______ _____ _____    ______ ____
ROOT
ATOM      1  CA  VAL A   1      40.572  22.606   5.647  0.00  0.00    +0.133 C 
ENDROOT
BRANCH   1   2
ATOM      2  CB  VAL A   1      41.535  21.757   6.540  0.00  0.00    +0.023 C 
ATOM      3  CG2 VAL A   1      42.587  22.646   7.205  0.00  0.00    +0.002 C 
ATOM      4  CG1 VAL A   1      42.221  20.658   5.732  0.00  0.00    +0.002 C 
ENDBRANCH   1   2
BRANCH   1   5
ATOM      5  N   VAL A   1      39.399  21.837   5.201  0.00  0.00    -0.239 NA
ATOM      6  H   VAL A   1      39.551  20.912   4.751  0.00  0.00    +0.142 HD
ENDBRANCH   1   5
BRANCH   1   7
ATOM      7  C   VAL A   1      41.321  23.158   4.436  0.00  0.00    +0.224 C 
ATOM      8  O   VAL A   1      41.523  22.472   3.436  0.00  0.00    -0.287 OA
ENDBRANCH   1   7
TORSDOF 3
REMARK  Name = ../refined-set-2016/4crf/4crf_pocket.pdb
REMARK  239 active torsions:
REMARK  status: ('A' for Active; 'I' for Inactive)
REMARK    1  A    between atoms: _1  and  _5
REMARK    2  A    between atoms: _5  and  _6
REMARK    3  A    between atoms: _5  and  _8
REMARK    4  A    between atoms: _8  and  _9
REMARK    5  A    between atoms: _12  and  _14
REMARK    6  A    between atoms: _14  and  _15
REMARK    7  A    between atoms: _14  and  _17
REMARK    8  A    between atoms: _20  and  _22
REMARK    9  A    between atoms: _22  and  _23
REMARK   10  A    between atoms: _22  and  _25
REMARK   11  A    between atoms: _25  and  _26
REMARK   12  A    between atoms: _29  and  _31
REMARK   13  A    between atoms: _31  and  _32
REMARK   14  A    between atoms: _31  and  _34
REMARK   15  A    between atoms: _34  and  _35
REMARK   16  A    between atoms: _38  and  _40
REMARK   17  A    between atoms: _40  and  _41
REMARK   18  A    between atoms: _40  and  _43
REMARK   19  A    between atoms: _43  and  _44
REMARK   20  A    between atoms: _47  and  _49
REMARK   21  A    between atoms: _49  and  _50
REMARK   22  A    between atoms: _49  and  _52
REMARK   23  A    between atoms: _52  and  _53
REMARK   24  A    between atoms: _56  and  _58
REMARK   25  A    between atoms: _58  and  _59
REMARK   26  A    between atoms: _58  and  _61
REMARK   27  A    between atoms: _61  and  _62
REMARK   28  A    between atoms: _62  and  _63
REMARK   29  A    between atoms: _68  and  _70
REMARK   30  A    between atoms: _70  and  _71
REMARK   31  A    between atoms: _70  and  _73
REMARK   32  A    between atoms: _73  and  _74
REMARK   33  A    between atoms: _74  and  _75
REMARK   34  A    between atoms: _75  and  _76
REMARK   35  A    between atoms: _85  and  _87
REMARK   36  A    between atoms: _87  and  _88
REMARK   37  A    between atoms: _87  and  _90
REMARK   38  A    between atoms: _90  and  _91
REMARK   39  A    between atoms: _96  and  _98
REMARK   40  A    between atoms: _98  and  _99
REMARK   41  A    between atoms: _98  and  _101
REMARK   42  A    between atoms: _101  and  _102
REMARK   43  A    between atoms: _105  and  _107
REMARK   44  A    between atoms: _107  and  _108
REMARK   45  A    between atoms: _107  and  _110
REMARK   46  A    between atoms: _110  and  _111
REMARK   47  A    between atoms: _111  and  _146
REMARK   48  A    between atoms: _112  and  _114
REMARK   49  A    between atoms: _114  and  _115
REMARK   50  A    between atoms: _117  and  _119
REMARK   51  A    between atoms: _119  and  _120
REMARK   52  A    between atoms: _123  and  _125
REMARK   53  A    between atoms: _125  and  _126
REMARK   54  A    between atoms: _129  and  _131
REMARK   55  A    between atoms: _131  and  _132
REMARK   56  A    between atoms: _131  and  _134
REMARK   57  A    between atoms: _134  and  _135
REMARK   58  A    between atoms: _140  and  _142
REMARK   59  A    between atoms: _142  and  _143
REMARK   60  A    between atoms: _142  and  _145
REMARK   61  A    between atoms: _145  and  _146
REMARK   62  A    between atoms: _147  and  _149
REMARK   63  A    between atoms: _149  and  _150
REMARK   64  A    between atoms: _149  and  _152
REMARK   65  A    between atoms: _152  and  _153
REMARK   66  A    between atoms: _159  and  _161
REMARK   67  A    between atoms: _161  and  _162
REMARK   68  A    between atoms: _161  and  _164
REMARK   69  A    between atoms: _164  and  _165
REMARK   70  A    between atoms: _170  and  _171
REMARK   71  A    between atoms: _173  and  _175
REMARK   72  A    between atoms: _175  and  _176
REMARK   73  A    between atoms: _178  and  _180
REMARK   74  A    between atoms: _180  and  _181
REMARK   75  A    between atoms: _180  and  _183
REMARK   76  A    between atoms: _186  and  _188
REMARK   77  A    between atoms: _188  and  _189
REMARK   78  A    between atoms: _192  and  _194
REMARK   79  A    between atoms: _194  and  _195
REMARK   80  A    between atoms: _194  and  _197
REMARK   81  A    between atoms: _197  and  _198
REMARK   82  A    between atoms: _201  and  _203
REMARK   83  A    between atoms: _203  and  _204
REMARK   84  A    between atoms: _203  and  _206
REMARK   85  A    between atoms: _209  and  _211
REMARK   86  A    between atoms: _211  and  _212
REMARK   87  A    between atoms: _211  and  _214
REMARK   88  A    between atoms: _214  and  _215
REMARK   89  A    between atoms: _225  and  _227
REMARK   90  A    between atoms: _227  and  _228
REMARK   91  A    between atoms: _230  and  _232
REMARK   92  A    between atoms: _232  and  _233
REMARK   93  A    between atoms: _232  and  _235
REMARK   94  A    between atoms: _235  and  _236
REMARK   95  A    between atoms: _241  and  _242
REMARK   96  A    between atoms: _244  and  _246
REMARK   97  A    between atoms: _246  and  _247
REMARK   98  A    between atoms: _246  and  _249
REMARK   99  A    between atoms: _249  and  _250
REMARK  100  A    between atoms: _250  and  _251
REMARK  101  A    between atoms: _251  and  _252
REMARK  102  A    between atoms: _252  and  _253
REMARK  103  A    between atoms: _257  and  _259
REMARK  104  A    between atoms: _259  and  _260
REMARK  105  A    between atoms: _259  and  _262
REMARK  106  A    between atoms: _262  and  _263
REMARK  107  A    between atoms: _266  and  _268
REMARK  108  A    between atoms: _268  and  _269
REMARK  109  A    between atoms: _268  and  _271
REMARK  110  A    between atoms: _271  and  _272
REMARK  111  A    between atoms: _272  and  _273
REMARK  112  A    between atoms: _273  and  _274
REMARK  113  A    between atoms: _283  and  _285
REMARK  114  A    between atoms: _285  and  _286
REMARK  115  A    between atoms: _285  and  _288
REMARK  116  A    between atoms: _288  and  _289
REMARK  117  A    between atoms: _292  and  _294
REMARK  118  A    between atoms: _294  and  _295
REMARK  119  A    between atoms: _294  and  _297
REMARK  120  A    between atoms: _297  and  _298
REMARK  121  A    between atoms: _298  and  _299
REMARK  122  A    between atoms: _299  and  _300
REMARK  123  A    between atoms: _300  and  _301
REMARK  124  A    between atoms: _305  and  _307
REMARK  125  A    between atoms: _307  and  _308
REMARK  126  A    between atoms: _307  and  _310
REMARK  127  A    between atoms: _310  and  _311
REMARK  128  A    between atoms: _314  and  _316
REMARK  129  A    between atoms: _316  and  _317
REMARK  130  A    between atoms: _316  and  _319
REMARK  131  A    between atoms: _319  and  _320
REMARK  132  A    between atoms: _320  and  _321
REMARK  133  A    between atoms: _326  and  _328
REMARK  134  A    between atoms: _328  and  _329
REMARK  135  A    between atoms: _328  and  _331
REMARK  136  A    between atoms: _331  and  _332
REMARK  137  A    between atoms: _335  and  _337
REMARK  138  A    between atoms: _337  and  _338
REMARK  139  A    between atoms: _337  and  _340
REMARK  140  A    between atoms: _340  and  _341
REMARK  141  A    between atoms: _346  and  _347
REMARK  142  A    between atoms: _349  and  _351
REMARK  143  A    between atoms: _351  and  _352
REMARK  144  A    between atoms: _351  and  _354
REMARK  145  A    between atoms: _354  and  _355
REMARK  146  A    between atoms: _358  and  _360
REMARK  147  A    between atoms: _360  and  _361
REMARK  148  A    between atoms: _360  and  _363
REMARK  149  A    between atoms: _365  and  _367
REMARK  150  A    between atoms: _367  and  _368
REMARK  151  A    between atoms: _371  and  _373
REMARK  152  A    between atoms: _373  and  _374
REMARK  153  A    between atoms: _373  and  _376
REMARK  154  A    between atoms: _376  and  _377
REMARK  155  A    between atoms: _380  and  _382
REMARK  156  A    between atoms: _382  and  _383
REMARK  157  A    between atoms: _386  and  _388
REMARK  158  A    between atoms: _388  and  _389
REMARK  159  A    between atoms: _388  and  _391
REMARK  160  A    between atoms: _391  and  _392
REMARK  161  A    between atoms: _392  and  _506
REMARK  162  A    between atoms: _393  and  _395
REMARK  163  A    between atoms: _395  and  _396
REMARK  164  A    between atoms: _395  and  _398
REMARK  165  A    between atoms: _398  and  _399
REMARK  166  A    between atoms: _399  and  _400
REMARK  167  A    between atoms: _400  and  _401
REMARK  168  A    between atoms: _401  and  _402
REMARK  169  A    between atoms: _406  and  _408
REMARK  170  A    between atoms: _408  and  _409
REMARK  171  A    between atoms: _411  and  _413
REMARK  172  A    between atoms: _413  and  _414
REMARK  173  A    between atoms: _413  and  _416
REMARK  174  A    between atoms: _416  and  _417
REMARK  175  A    between atoms: _420  and  _422
REMARK  176  A    between atoms: _422  and  _423
REMARK  177  A    between atoms: _422  and  _425
REMARK  178  A    between atoms: _425  and  _426
REMARK  179  A    between atoms: _428  and  _430
REMARK  180  A    between atoms: _430  and  _431
REMARK  181  A    between atoms: _433  and  _435
REMARK  182  A    between atoms: _435  and  _436
REMARK  183  A    between atoms: _438  and  _440
REMARK  184  A    between atoms: _440  and  _441
REMARK  185  A    between atoms: _440  and  _443
REMARK  186  A    between atoms: _443  and  _444
REMARK  187  A    between atoms: _447  and  _449
REMARK  188  A    between atoms: _449  and  _450
REMARK  189  A    between atoms: _449  and  _452
REMARK  190  A    between atoms: _452  and  _453
REMARK  191  A    between atoms: _456  and  _458
REMARK  192  A    between atoms: _458  and  _459
REMARK  193  A    between atoms: _458  and  _461
REMARK  194  A    between atoms: _461  and  _462
REMARK  195  A    between atoms: _464  and  _466
REMARK  196  A    between atoms: _466  and  _467
REMARK  197  A    between atoms: _466  and  _469
REMARK  198  A    between atoms: _469  and  _470
REMARK  199  A    between atoms: _480  and  _482
REMARK  200  A    between atoms: _482  and  _483
REMARK  201  A    between atoms: _485  and  _487
REMARK  202  A    between atoms: _487  and  _488
REMARK  203  A    between atoms: _487  and  _490
REMARK  204  A    between atoms: _490  and  _491
REMARK  205  A    between atoms: _491  and  _492
REMARK  206  A    between atoms: _495  and  _497
REMARK  207  A    between atoms: _497  and  _498
REMARK  208  A    between atoms: _500  and  _502
REMARK  209  A    between atoms: _502  and  _503
REMARK  210  A    between atoms: _502  and  _505
REMARK  211  A    between atoms: _505  and  _506
REMARK  212  A    between atoms: _507  and  _509
REMARK  213  A    between atoms: _509  and  _510
REMARK  214  A    between atoms: _513  and  _515
REMARK  215  A    between atoms: _515  and  _516
REMARK  216  A    between atoms: _515  and  _518
REMARK  217  A    between atoms: _518  and  _519
REMARK  218  A    between atoms: _519  and  _520
REMARK  219  A    between atoms: _525  and  _527
REMARK  220  A    between atoms: _527  and  _528
REMARK  221  A    between atoms: _527  and  _530
REMARK  222  A    between atoms: _530  and  _531
REMARK  223  A    between atoms: _531  and  _532
REMARK  224  A    between atoms: _532  and  _533
REMARK  225  A    between atoms: _543  and  _544
REMARK  226  A    between atoms: _549  and  _551
REMARK  227  A    between atoms: _551  and  _552
REMARK  228  A    between atoms: _554  and  _556
REMARK  229  A    between atoms: _556  and  _557
REMARK  230  A    between atoms: _556  and  _559
REMARK  231  A    between atoms: _562  and  _564
REMARK  232  A    between atoms: _564  and  _565
REMARK  233  A    between atoms: _564  and  _567
REMARK  234  A    between atoms: _567  and  _568
REMARK  235  A    between atoms: _573  and  _574
REMARK  236  A    between atoms: _576  and  _578
REMARK  237  A    between atoms: _578  and  _579
REMARK  238  A    between atoms: _578  and  _581
REMARK  239  A    between atoms: _581  and  _582
REMARK                            x       y       z     vdW  Elec       q    Type
REMARK                         _______ _______ _______ _____ _____    ______ ____
ROOT
ATOM      1  C   TRP A   1      50.246  26.394   1.890  0.00  0.00    +0.239 C 
ATOM      2  N   GLY A   2      49.937  25.544   2.855  0.00  0.00    -0.296 N 
ATOM      3  H   GLY A   2      48.947  25.419   3.148  0.00  0.00    +0.150 HD
ATOM      4  O   TRP A   1      51.392  26.487   1.464  0.00  0.00    -0.274 OA
ENDROOT
BRANCH   1   5
ATOM      5  CA  TRP A   1      49.114  27.257   1.314  0.00  0.00    +0.149 C 
BRANCH   5   6
ATOM      6  N   TRP A   1      47.916  27.283   2.161  0.00  0.00    -0.238 NA
ATOM      7  H   TRP A   1      47.889  27.956   2.953  0.00  0.00    +0.142 HD
ENDBRANCH   5   6
BRANCH   5   8
ATOM      8  CB  TRP A   1      49.640  28.682   1.092  0.00  0.00    +0.054 C 
BRANCH   8   9
ATOM      9  CG  TRP A   1      48.721  29.494   0.216  0.00  0.00    -0.002 A 
ATOM     10  CD2 TRP A   1      47.660  30.342   0.652  0.00  0.00    +0.013 A 
ATOM     11  CE3 TRP A   1      47.181  30.722   1.905  0.00  0.00    +0.001 A 
ATOM     12  CZ3 TRP A   1      46.136  31.604   1.967  0.00  0.00    +0.000 A 
ATOM     13  CH2 TRP A   1      45.561  32.125   0.806  0.00  0.00    +0.001 A 
ATOM     14  CZ2 TRP A   1      46.010  31.778  -0.436  0.00  0.00    +0.017 A 
ATOM     15  CE2 TRP A   1      47.058  30.884  -0.500  0.00  0.00    +0.056 A 
ATOM     16  NE1 TRP A   1      47.715  30.370  -1.586  0.00  0.00    -0.352 N 
ATOM     17  HE1 TRP A   1      47.498  30.575  -2.582  0.00  0.00    +0.166 HD
ATOM     18  CD1 TRP A   1      48.713  29.535  -1.134  0.00  0.00    +0.068 A 
ENDBRANCH   8   9
ENDBRANCH   5   8
ENDBRANCH   1   5
BRANCH   2  19
ATOM     19  CA  GLY A   2      50.999  24.783   3.504  0.00  0.00    +0.176 C 
BRANCH  19  20
ATOM     20  C   GLY A   2      51.589  23.655   2.674  0.00  0.00    +0.243 C 
ATOM     21  N   TYR A   3      52.456  22.911   3.334  0.00  0.00    -0.298 N 
ATOM     22  H   TYR A   3      52.644  23.140   4.331  0.00  0.00    +0.150 HD
ATOM     23  O   GLY A   2      51.240  23.429   1.505  0.00  0.00    -0.273 OA
BRANCH  21  24
ATOM     24  CA  TYR A   3      53.167  21.779   2.735  0.00  0.00    +0.141 C 
BRANCH  24  25
ATOM     25  C   TYR A   3      52.229  20.691   2.225  0.00  0.00    +0.227 C 
ATOM     26  O   TYR A   3      51.212  20.444   2.813  0.00  0.00    -0.286 OA
ENDBRANCH  24  25
BRANCH  24  27
ATOM     27  CB  TYR A   3      54.057  21.141   3.795  0.00  0.00    +0.054 C 
BRANCH  27  28
ATOM     28  CG  TYR A   3      55.301  21.887   4.248  0.00  0.00    -0.020 A 
ATOM     29  CD2 TYR A   3      56.329  21.176   4.872  0.00  0.00    -0.001 A 
ATOM     30  CE2 TYR A   3      57.471  21.801   5.346  0.00  0.00    +0.036 A 
ATOM     31  CZ  TYR A   3      57.600  23.143   5.212  0.00  0.00    +0.134 A 
ATOM     32  CE1 TYR A   3      56.579  23.903   4.621  0.00  0.00    +0.036 A 
ATOM     33  CD1 TYR A   3      55.428  23.267   4.159  0.00  0.00    -0.001 A 
BRANCH  31  34
ATOM     34  OH  TYR A   3      58.743  23.713   5.693  0.00  0.00    -0.506 OA
ATOM     35  HH  TYR A   3      58.715  24.690   5.535  0.00  0.00    +0.292 HD
ENDBRANCH  31  34
ENDBRANCH  27  28
ENDBRANCH  24  27
ENDBRANCH  21  24
ENDBRANCH  19  20
ENDBRANCH   2  19
TORSDOF 11
REMARK  Name = ../refined-set-2016/4crf/4crf_pocket.pdb
REMARK  239 active torsions:
REMARK  status: ('A' for Active; 'I' for Inactive)
REMARK    1  A    between atoms: _1  and  _5
REMARK    2  A    between atoms: _5  and  _6
REMARK    3  A    between atoms: _5  and  _8
REMARK    4  A    between atoms: _8  and  _9
REMARK    5  A    between atoms: _12  and  _14
REMARK    6  A    between atoms: _14  and  _15
REMARK    7  A    between atoms: _14  and  _17
REMARK    8  A    between atoms: _20  and  _22
REMARK    9  A    between atoms: _22  and  _23
REMARK   10  A    between atoms: _22  and  _25
REMARK   11  A    between atoms: _25  and  _26
REMARK   12  A    between atoms: _29  and  _31
REMARK   13  A    between atoms: _31  and  _32
REMARK   14  A    between atoms: _31  and  _34
REMARK   15  A    between atoms: _34  and  _35
REMARK   16  A    between atoms: _38  and  _40
REMARK   17  A    between atoms: _40  and  _41
REMARK   18  A    between atoms: _40  and  _43
REMARK   19  A    between atoms: _43  and  _44
REMARK   20  A    between atoms: _47  and  _49
REMARK   21  A    between atoms: _49  and  _50
REMARK   22  A    between atoms: _49  and  _52
REMARK   23  A    between atoms: _52  and  _53
REMARK   24  A    between atoms: _56  and  _58
REMARK   25  A    between atoms: _58  and  _59
REMARK   26  A    between atoms: _58  and  _61
REMARK   27  A    between atoms: _61  and  _62
REMARK   28  A    between atoms: _62  and  _63
REMARK   29  A    between atoms: _68  and  _70
REMARK   30  A    between atoms: _70  and  _71
REMARK   31  A    between atoms: _70  and  _73
REMARK   32  A    between atoms: _73  and  _74
REMARK   33  A    between atoms: _74  and  _75
REMARK   34  A    between atoms: _75  and  _76
REMARK   35  A    between atoms: _85  and  _87
REMARK   36  A    between atoms: _87  and  _88
REMARK   37  A    between atoms: _87  and  _90
REMARK   38  A    between atoms: _90  and  _91
REMARK   39  A    between atoms: _96  and  _98
REMARK   40  A    between atoms: _98  and  _99
REMARK   41  A    between atoms: _98  and  _101
REMARK   42  A    between atoms: _101  and  _102
REMARK   43  A    between atoms: _105  and  _107
REMARK   44  A    between atoms: _107  and  _108
REMARK   45  A    between atoms: _107  and  _110
REMARK   46  A    between atoms: _110  and  _111
REMARK   47  A    between atoms: _111  and  _146
REMARK   48  A    between atoms: _112  and  _114
REMARK   49  A    between atoms: _114  and  _115
REMARK   50  A    between atoms: _117  and  _119
REMARK   51  A    between atoms: _119  and  _120
REMARK   52  A    between atoms: _123  and  _125
REMARK   53  A    between atoms: _125  and  _126
REMARK   54  A    between atoms: _129  and  _131
REMARK   55  A    between atoms: _131  and  _132
REMARK   56  A    between atoms: _131  and  _134
REMARK   57  A    between atoms: _134  and  _135
REMARK   58  A    between atoms: _140  and  _142
REMARK   59  A    between atoms: _142  and  _143
REMARK   60  A    between atoms: _142  and  _145
REMARK   61  A    between atoms: _145  and  _146
REMARK   62  A    between atoms: _147  and  _149
REMARK   63  A    between atoms: _149  and  _150
REMARK   64  A    between atoms: _149  and  _152
REMARK   65  A    between atoms: _152  and  _153
REMARK   66  A    between atoms: _159  and  _161
REMARK   67  A    between atoms: _161  and  _162
REMARK   68  A    between atoms: _161  and  _164
REMARK   69  A    between atoms: _164  and  _165
REMARK   70  A    between atoms: _170  and  _171
REMARK   71  A    between atoms: _173  and  _175
REMARK   72  A    between atoms: _175  and  _176
REMARK   73  A    between atoms: _178  and  _180
REMARK   74  A    between atoms: _180  and  _181
REMARK   75  A    between atoms: _180  and  _183
REMARK   76  A    between atoms: _186  and  _188
REMARK   77  A    between atoms: _188  and  _189
REMARK   78  A    between atoms: _192  and  _194
REMARK   79  A    between atoms: _194  and  _195
REMARK   80  A    between atoms: _194  and  _197
REMARK   81  A    between atoms: _197  and  _198
REMARK   82  A    between atoms: _201  and  _203
REMARK   83  A    between atoms: _203  and  _204
REMARK   84  A    between atoms: _203  and  _206
REMARK   85  A    between atoms: _209  and  _211
REMARK   86  A    between atoms: _211  and  _212
REMARK   87  A    between atoms: _211  and  _214
REMARK   88  A    between atoms: _214  and  _215
REMARK   89  A    between atoms: _225  and  _227
REMARK   90  A    between atoms: _227  and  _228
REMARK   91  A    between atoms: _230  and  _232
REMARK   92  A    between atoms: _232  and  _233
REMARK   93  A    between atoms: _232  and  _235
REMARK   94  A    between atoms: _235  and  _236
REMARK   95  A    between atoms: _241  and  _242
REMARK   96  A    between atoms: _244  and  _246
REMARK   97  A    between atoms: _246  and  _247
REMARK   98  A    between atoms: _246  and  _249
REMARK   99  A    between atoms: _249  and  _250
REMARK  100  A    between atoms: _250  and  _251
REMARK  101  A    between atoms: _251  and  _252
REMARK  102  A    between atoms: _252  and  _253
REMARK  103  A    between atoms: _257  and  _259
REMARK  104  A    between atoms: _259  and  _260
REMARK  105  A    between atoms: _259  and  _262
REMARK  106  A    between atoms: _262  and  _263
REMARK  107  A    between atoms: _266  and  _268
REMARK  108  A    between atoms: _268  and  _269
REMARK  109  A    between atoms: _268  and  _271
REMARK  110  A    between atoms: _271  and  _272
REMARK  111  A    between atoms: _272  and  _273
REMARK  112  A    between atoms: _273  and  _274
REMARK  113  A    between atoms: _283  and  _285
REMARK  114  A    between atoms: _285  and  _286
REMARK  115  A    between atoms: _285  and  _288
REMARK  116  A    between atoms: _288  and  _289
REMARK  117  A    between atoms: _292  and  _294
REMARK  118  A    between atoms: _294  and  _295
REMARK  119  A    between atoms: _294  and  _297
REMARK  120  A    between atoms: _297  and  _298
REMARK  121  A    between atoms: _298  and  _299
REMARK  122  A    between atoms: _299  and  _300
REMARK  123  A    between atoms: _300  and  _301
REMARK  124  A    between atoms: _305  and  _307
REMARK  125  A    between atoms: _307  and  _308
REMARK  126  A    between atoms: _307  and  _310
REMARK  127  A    between atoms: _310  and  _311
REMARK  128  A    between atoms: _314  and  _316
REMARK  129  A    between atoms: _316  and  _317
REMARK  130  A    between atoms: _316  and  _319
REMARK  131  A    between atoms: _319  and  _320
REMARK  132  A    between atoms: _320  and  _321
REMARK  133  A    between atoms: _326  and  _328
REMARK  134  A    between atoms: _328  and  _329
REMARK  135  A    between atoms: _328  and  _331
REMARK  136  A    between atoms: _331  and  _332
REMARK  137  A    between atoms: _335  and  _337
REMARK  138  A    between atoms: _337  and  _338
REMARK  139  A    between atoms: _337  and  _340
REMARK  140  A    between atoms: _340  and  _341
REMARK  141  A    between atoms: _346  and  _347
REMARK  142  A    between atoms: _349  and  _351
REMARK  143  A    between atoms: _351  and  _352
REMARK  144  A    between atoms: _351  and  _354
REMARK  145  A    between atoms: _354  and  _355
REMARK  146  A    between atoms: _358  and  _360
REMARK  147  A    between atoms: _360  and  _361
REMARK  148  A    between atoms: _360  and  _363
REMARK  149  A    between atoms: _365  and  _367
REMARK  150  A    between atoms: _367  and  _368
REMARK  151  A    between atoms: _371  and  _373
REMARK  152  A    between atoms: _373  and  _374
REMARK  153  A    between atoms: _373  and  _376
REMARK  154  A    between atoms: _376  and  _377
REMARK  155  A    between atoms: _380  and  _382
REMARK  156  A    between atoms: _382  and  _383
REMARK  157  A    between atoms: _386  and  _388
REMARK  158  A    between atoms: _388  and  _389
REMARK  159  A    between atoms: _388  and  _391
REMARK  160  A    between atoms: _391  and  _392
REMARK  161  A    between atoms: _392  and  _506
REMARK  162  A    between atoms: _393  and  _395
REMARK  163  A    between atoms: _395  and  _396
REMARK  164  A    between atoms: _395  and  _398
REMARK  165  A    between atoms: _398  and  _399
REMARK  166  A    between atoms: _399  and  _400
REMARK  167  A    between atoms: _400  and  _401
REMARK  168  A    between atoms: _401  and  _402
REMARK  169  A    between atoms: _406  and  _408
REMARK  170  A    between atoms: _408  and  _409
REMARK  171  A    between atoms: _411  and  _413
REMARK  172  A    between atoms: _413  and  _414
REMARK  173  A    between atoms: _413  and  _416
REMARK  174  A    between atoms: _416  and  _417
REMARK  175  A    between atoms: _420  and  _422
REMARK  176  A    between atoms: _422  and  _423
REMARK  177  A    between atoms: _422  and  _425
REMARK  178  A    between atoms: _425  and  _426
REMARK  179  A    between atoms: _428  and  _430
REMARK  180  A    between atoms: _430  and  _431
REMARK  181  A    between atoms: _433  and  _435
REMARK  182  A    between atoms: _435  and  _436
REMARK  183  A    between atoms: _438  and  _440
REMARK  184  A    between atoms: _440  and  _441
REMARK  185  A    between atoms: _440  and  _443
REMARK  186  A    between atoms: _443  and  _444
REMARK  187  A    between atoms: _447  and  _449
REMARK  188  A    between atoms: _449  and  _450
REMARK  189  A    between atoms: _449  and  _452
REMARK  190  A    between atoms: _452  and  _453
REMARK  191  A    between atoms: _456  and  _458
REMARK  192  A    between atoms: _458  and  _459
REMARK  193  A    between atoms: _458  and  _461
REMARK  194  A    between atoms: _461  and  _462
REMARK  195  A    between atoms: _464  and  _466
REMARK  196  A    between atoms: _466  and  _467
REMARK  197  A    between atoms: _466  and  _469
REMARK  198  A    between atoms: _469  and  _470
REMARK  199  A    between atoms: _480  and  _482
REMARK  200  A    between atoms: _482  and  _483
REMARK  201  A    between atoms: _485  and  _487
REMARK  202  A    between atoms: _487  and  _488
REMARK  203  A    between atoms: _487  and  _490
REMARK  204  A    between atoms: _490  and  _491
REMARK  205  A    between atoms: _491  and  _492
REMARK  206  A    between atoms: _495  and  _497
REMARK  207  A    between atoms: _497  and  _498
REMARK  208  A    between atoms: _500  and  _502
REMARK  209  A    between atoms: _502  and  _503
REMARK  210  A    between atoms: _502  and  _505
REMARK  211  A    between atoms: _505  and  _506
REMARK  212  A    between atoms: _507  and  _509
REMARK  213  A    between atoms: _509  and  _510
REMARK  214  A    between atoms: _513  and  _515
REMARK  215  A    between atoms: _515  and  _516
REMARK  216  A    between atoms: _515  and  _518
REMARK  217  A    between atoms: _518  and  _519
REMARK  218  A    between atoms: _519  and  _520
REMARK  219  A    between atoms: _525  and  _527
REMARK  220  A    between atoms: _527  and  _528
REMARK  221  A    between atoms: _527  and  _530
REMARK  222  A    between atoms: _530  and  _531
REMARK  223  A    between atoms: _531  and  _532
REMARK  224  A    between atoms: _532  and  _533
REMARK  225  A    between atoms: _543  and  _544
REMARK  226  A    between atoms: _549  and  _551
REMARK  227  A    between atoms: _551  and  _552
REMARK  228  A    between atoms: _554  and  _556
REMARK  229  A    between atoms: _556  and  _557
REMARK  230  A    between atoms: _556  and  _559
REMARK  231  A    between atoms: _562  and  _564
REMARK  232  A    between atoms: _564  and  _565
REMARK  233  A    between atoms: _564  and  _567
REMARK  234  A    between atoms: _567  and  _568
REMARK  235  A    between atoms: _573  and  _574
REMARK  236  A    between atoms: _576  and  _578
REMARK  237  A    between atoms: _578  and  _579
REMARK  238  A    between atoms: _578  and  _581
REMARK  239  A    between atoms: _581  and  _582
REMARK                            x       y       z     vdW  Elec       q    Type
REMARK                         _______ _______ _______ _____ _____    ______ ____
ROOT
ATOM      1  C   ARG A   3      58.805  18.311   3.046  0.00  0.00    +0.241 C 
ATOM      2  N   ASP A   4      58.693  19.616   2.777  0.00  0.00    -0.297 N 
ATOM      3  H   ASP A   4      59.025  20.290   3.496  0.00  0.00    +0.150 HD
ATOM      4  O   ARG A   3      58.570  17.423   2.225  0.00  0.00    -0.273 OA
ENDROOT
BRANCH   1   5
ATOM      5  CA  ARG A   3      59.198  17.947   4.482  0.00  0.00    +0.149 C 
BRANCH   5   8
ATOM      6  C   LEU A   2      57.248  17.666   5.946  0.00  0.00    +0.241 C 
ATOM      7  O   LEU A   2      57.507  18.698   6.594  0.00  0.00    -0.273 OA
ATOM      8  N   ARG A   3      58.061  17.176   5.002  0.00  0.00    -0.297 N 
ATOM      9  H   ARG A   3      57.883  16.223   4.626  0.00  0.00    +0.150 HD
BRANCH   6  10
ATOM     10  CA  LEU A   2      55.957  16.865   6.247  0.00  0.00    +0.149 C 
BRANCH  10  12
ATOM     11  C   LYS A   1      54.935  17.029   3.956  0.00  0.00    +0.238 C 
ATOM     12  N   LEU A   2      55.218  16.308   5.053  0.00  0.00    -0.297 N 
ATOM     13  H   LEU A   2      54.912  15.314   5.082  0.00  0.00    +0.150 HD
ATOM     14  O   LYS A   1      55.462  18.117   3.711  0.00  0.00    -0.274 OA
BRANCH  11  15
ATOM     15  CA  LYS A   1      53.931  16.450   2.933  0.00  0.00    +0.145 C 
BRANCH  15  16
ATOM     16  N   LYS A   1      53.413  17.611   2.143  0.00  0.00    -0.238 NA
ATOM     17  H   LYS A   1      53.867  18.536   2.282  0.00  0.00    +0.142 HD
ENDBRANCH  15  16
BRANCH  15  18
ATOM     18  CB  LYS A   1      54.623  15.413   2.019  0.00  0.00    +0.026 C 
BRANCH  18  19
ATOM     19  CG  LYS A   1      55.800  16.007   1.264  0.00  0.00    -0.000 C 
BRANCH  19  20
ATOM     20  CD  LYS A   1      56.368  15.143   0.152  0.00  0.00    -0.024 C 
BRANCH  20  21
ATOM     21  CE  LYS A   1      57.302  15.997  -0.723  0.00  0.00    -0.086 C 
BRANCH  21  22
ATOM     22  NZ  LYS A   1      58.488  15.267  -1.266  0.00  0.00    +0.380 N 
ATOM     23  HZ1 LYS A   1      59.061  14.904  -0.478  0.00  0.00    -0.089 HD
ATOM     24  HZ2 LYS A   1      59.060  15.917  -1.842  0.00  0.00    -0.089 HD
ATOM     25  HZ3 LYS A   1      58.165  14.473  -1.855  0.00  0.00    -0.089 HD
ENDBRANCH  21  22
ENDBRANCH  20  21
ENDBRANCH  19  20
ENDBRANCH  18  19
ENDBRANCH  15  18
ENDBRANCH  11  15
ENDBRANCH  10  12
BRANCH  10  26
ATOM     26  CB  LEU A   2      56.280  15.764   7.282  0.00  0.00    +0.029 C 
BRANCH  26  27
ATOM     27  CG  LEU A   2      56.158  16.120   8.782  0.00  0.00    +0.002 C 
ATOM     28  CD2 LEU A   2      56.652  14.942   9.632  0.00  0.00    +0.000 C 
ATOM     29  CD1 LEU A   2      56.893  17.399   9.164  0.00  0.00    +0.000 C 
ENDBRANCH  26  27
ENDBRANCH  10  26
ENDBRANCH   6  10
ENDBRANCH   5   8
BRANCH   5  30
ATOM     30  CB  ARG A   3      60.546  17.167   4.566  0.00  0.00    +0.033 C 
BRANCH  30  31
ATOM     31  CG  ARG A   3      60.809  16.378   5.871  0.00  0.00    +0.045 C 
BRANCH  31  32
ATOM     32  CD  ARG A   3      60.794  17.230   7.153  0.00  0.00    +0.174 C 
BRANCH  32  33
ATOM     33  NE  ARG A   3      60.807  16.434   8.397  0.00  0.00    -0.265 N 
ATOM     34  CZ  ARG A   3      60.684  16.933   9.635  0.00  0.00    +0.342 C 
ATOM     35  NH2 ARG A   3      60.700  16.116  10.687  0.00  0.00    -0.292 N 
ATOM     36 HH21 ARG A   3      60.605  16.503  11.648  0.00  0.00    +0.255 HD
ATOM     37 HH22 ARG A   3      60.808  15.091  10.548  0.00  0.00    +0.255 HD
ATOM     38  NH1 ARG A   3      60.541  18.245   9.840  0.00  0.00    -0.292 N 
ATOM     39 HH11 ARG A   3      60.447  18.613  10.808  0.00  0.00    +0.255 HD
ATOM     40 HH12 ARG A   3      60.524  18.899   9.031  0.00  0.00    +0.255 HD
ATOM     41  HE  ARG A   3      60.921  15.404   8.305  0.00  0.00    +0.259 HD
ENDBRANCH  32  33
ENDBRANCH  31  32
ENDBRANCH  30  31
ENDBRANCH   5  30
ENDBRANCH   1   5
BRANCH   2  42
ATOM     42  CA  ASP A   4      58.132  20.163   1.532  0.00  0.00    +0.160 C 
BRANCH  42  43
ATOM     43  C   ASP A   4      58.240  21.687   1.689  0.00  0.00    +0.241 C 
ATOM     44  O   ASP A   4      59.105  22.174   2.415  0.00  0.00    -0.273 OA
ATOM     45  N   LYS A   5      57.370  22.436   1.025  0.00  0.00    -0.297 N 
ATOM     46  H   LYS A   5      56.616  21.972   0.480  0.00  0.00    +0.150 HD
BRANCH  45  47
ATOM     47  CA  LYS A   5      57.442  23.887   1.038  0.00  0.00    +0.149 C 
BRANCH  47  48
ATOM     48  C   LYS A   5      56.059  24.480   0.852  0.00  0.00    +0.241 C 
ATOM     49  N   ILE A   6      56.012  25.808   0.902  0.00  0.00    -0.297 N 
ATOM     50  H   ILE A   6      56.902  26.333   1.024  0.00  0.00    +0.150 HD
ATOM     51  O   LYS A   5      55.071  23.755   0.660  0.00  0.00    -0.273 OA
BRANCH  49  52
ATOM     52  CA  ILE A   6      54.772  26.559   0.794  0.00  0.00    +0.149 C 
BRANCH  52  53
ATOM     53  C   ILE A   6      54.316  26.476  -0.655  0.00  0.00    +0.241 C 
ATOM     54  N   GLN A   7      53.036  26.167  -0.854  0.00  0.00    -0.298 N 
ATOM     55  H   GLN A   7      52.427  25.994  -0.029  0.00  0.00    +0.150 HD
ATOM     56  O   ILE A   6      55.116  26.665  -1.574  0.00  0.00    -0.273 OA
BRANCH  54  57
ATOM     57  CA  GLN A   7      52.456  26.063  -2.196  0.00  0.00    +0.137 C 
BRANCH  57  58
ATOM     58  C   GLN A   7      51.972  27.418  -2.712  0.00  0.00    +0.227 C 
ATOM     59  O   GLN A   7      51.559  28.289  -1.947  0.00  0.00    -0.286 OA
ENDBRANCH  57  58
BRANCH  57  60
ATOM     60  CB  GLN A   7      51.299  25.064  -2.201  0.00  0.00    +0.037 C 
BRANCH  60  61
ATOM     61  CG  GLN A   7      51.697  23.689  -1.692  0.00  0.00    +0.087 C 
BRANCH  61  62
ATOM     62  CD  GLN A   7      52.836  23.109  -2.479  0.00  0.00    +0.219 C 
ATOM     63  NE2 GLN A   7      53.966  22.839  -1.836  0.00  0.00    -0.329 N 
ATOM     64 HE21 GLN A   7      54.038  23.017  -0.814  0.00  0.00    +0.145 HD
ATOM     65 HE22 GLN A   7      54.779  22.449  -2.354  0.00  0.00    +0.145 HD
ATOM     66  OE1 GLN A   7      52.704  22.920  -3.662  0.00  0.00    -0.275 OA
ENDBRANCH  61  62
ENDBRANCH  60  61
ENDBRANCH  57  60
ENDBRANCH  54  57
ENDBRANCH  52  53
BRANCH  52  67
ATOM     67  CB  ILE A   6      55.009  28.019   1.213  0.00  0.00    +0.027 C 
ATOM     68  CG2 ILE A   6      53.820  28.906   0.869  0.00  0.00    +0.002 C 
BRANCH  67  69
ATOM     69  CG1 ILE A   6      55.356  28.092   2.716  0.00  0.00    +0.002 C 
ATOM     70  CD1 ILE A   6      54.357  27.452   3.654  0.00  0.00    +0.000 C 
ENDBRANCH  67  69
ENDBRANCH  52  67
ENDBRANCH  49  52
ENDBRANCH  47  48
BRANCH  47  71
ATOM     71  CB  LYS A   5      58.353  24.359  -0.091  0.00  0.00    +0.029 C 
BRANCH  71  72
ATOM     72  CG  LYS A   5      57.751  24.102  -1.464  0.00  0.00    +0.000 C 
BRANCH  72  73
ATOM     73  CD  LYS A   5      58.708  23.354  -2.377  0.00  0.00    -0.024 C 
BRANCH  73  74
ATOM     74  CE  LYS A   5      59.412  24.254  -3.379  0.00  0.00    -0.086 C 
BRANCH  74  75
ATOM     75  NZ  LYS A   5      59.950  23.431  -4.503  0.00  0.00    +0.380 N 
ATOM     76  HZ1 LYS A   5      60.626  22.735  -4.129  0.00  0.00    -0.089 HD
ATOM     77  HZ2 LYS A   5      59.166  22.936  -4.974  0.00  0.00    -0.089 HD
ATOM     78  HZ3 LYS A   5      60.431  24.051  -5.186  0.00  0.00    -0.089 HD
ENDBRANCH  74  75
ENDBRANCH  73  74
ENDBRANCH  72  73
ENDBRANCH  71  72
ENDBRANCH  47  71
ENDBRANCH  45  47
ENDBRANCH  42  43
BRANCH  42  79
ATOM     79  CB  ASP A   4      56.647  19.728   1.321  0.00  0.00    +0.143 C 
BRANCH  79  80
ATOM     80  CG  ASP A   4      56.145  19.910  -0.118  0.00  0.00    +0.367 C 
ATOM     81  OD2 ASP A   4      55.061  20.512  -0.338  0.00  0.00    -0.246 OA
ATOM     82  OD1 ASP A   4      56.805  19.427  -1.044  0.00  0.00    -0.246 OA
ENDBRANCH  79  80
ENDBRANCH  42  79
ENDBRANCH   2  42
TORSDOF 37
REMARK  Name = ../refined-set-2016/4crf/4crf_pocket.pdb
REMARK  239 active torsions:
REMARK  status: ('A' for Active; 'I' for Inactive)
REMARK    1  A    between atoms: _1  and  _5
REMARK    2  A    between atoms: _5  and  _6
REMARK    3  A    between atoms: _5  and  _8
REMARK    4  A    between atoms: _8  and  _9
REMARK    5  A    between atoms: _12  and  _14
REMARK    6  A    between atoms: _14  and  _15
REMARK    7  A    between atoms: _14  and  _17
REMARK    8  A    between atoms: _20  and  _22
REMARK    9  A    between atoms: _22  and  _23
REMARK   10  A    between atoms: _22  and  _25
REMARK   11  A    between atoms: _25  and  _26
REMARK   12  A    between atoms: _29  and  _31
REMARK   13  A    between atoms: _31  and  _32
REMARK   14  A    between atoms: _31  and  _34
REMARK   15  A    between atoms: _34  and  _35
REMARK   16  A    between atoms: _38  and  _40
REMARK   17  A    between atoms: _40  and  _41
REMARK   18  A    between atoms: _40  and  _43
REMARK   19  A    between atoms: _43  and  _44
REMARK   20  A    between atoms: _47  and  _49
REMARK   21  A    between atoms: _49  and  _50
REMARK   22  A    between atoms: _49  and  _52
REMARK   23  A    between atoms: _52  and  _53
REMARK   24  A    between atoms: _56  and  _58
REMARK   25  A    between atoms: _58  and  _59
REMARK   26  A    between atoms: _58  and  _61
REMARK   27  A    between atoms: _61  and  _62
REMARK   28  A    between atoms: _62  and  _63
REMARK   29  A    between atoms: _68  and  _70
REMARK   30  A    between atoms: _70  and  _71
REMARK   31  A    between atoms: _70  and  _73
REMARK   32  A    between atoms: _73  and  _74
REMARK   33  A    between atoms: _74  and  _75
REMARK   34  A    between atoms: _75  and  _76
REMARK   35  A    between atoms: _85  and  _87
REMARK   36  A    between atoms: _87  and  _88
REMARK   37  A    between atoms: _87  and  _90
REMARK   38  A    between atoms: _90  and  _91
REMARK   39  A    between atoms: _96  and  _98
REMARK   40  A    between atoms: _98  and  _99
REMARK   41  A    between atoms: _98  and  _101
REMARK   42  A    between atoms: _101  and  _102
REMARK   43  A    between atoms: _105  and  _107
REMARK   44  A    between atoms: _107  and  _108
REMARK   45  A    between atoms: _107  and  _110
REMARK   46  A    between atoms: _110  and  _111
REMARK   47  A    between atoms: _111  and  _146
REMARK   48  A    between atoms: _112  and  _114
REMARK   49  A    between atoms: _114  and  _115
REMARK   50  A    between atoms: _117  and  _119
REMARK   51  A    between atoms: _119  and  _120
REMARK   52  A    between atoms: _123  and  _125
REMARK   53  A    between atoms: _125  and  _126
REMARK   54  A    between atoms: _129  and  _131
REMARK   55  A    between atoms: _131  and  _132
REMARK   56  A    between atoms: _131  and  _134
REMARK   57  A    between atoms: _134  and  _135
REMARK   58  A    between atoms: _140  and  _142
REMARK   59  A    between atoms: _142  and  _143
REMARK   60  A    between atoms: _142  and  _145
REMARK   61  A    between atoms: _145  and  _146
REMARK   62  A    between atoms: _147  and  _149
REMARK   63  A    between atoms: _149  and  _150
REMARK   64  A    between atoms: _149  and  _152
REMARK   65  A    between atoms: _152  and  _153
REMARK   66  A    between atoms: _159  and  _161
REMARK   67  A    between atoms: _161  and  _162
REMARK   68  A    between atoms: _161  and  _164
REMARK   69  A    between atoms: _164  and  _165
REMARK   70  A    between atoms: _170  and  _171
REMARK   71  A    between atoms: _173  and  _175
REMARK   72  A    between atoms: _175  and  _176
REMARK   73  A    between atoms: _178  and  _180
REMARK   74  A    between atoms: _180  and  _181
REMARK   75  A    between atoms: _180  and  _183
REMARK   76  A    between atoms: _186  and  _188
REMARK   77  A    between atoms: _188  and  _189
REMARK   78  A    between atoms: _192  and  _194
REMARK   79  A    between atoms: _194  and  _195
REMARK   80  A    between atoms: _194  and  _197
REMARK   81  A    between atoms: _197  and  _198
REMARK   82  A    between atoms: _201  and  _203
REMARK   83  A    between atoms: _203  and  _204
REMARK   84  A    between atoms: _203  and  _206
REMARK   85  A    between atoms: _209  and  _211
REMARK   86  A    between atoms: _211  and  _212
REMARK   87  A    between atoms: _211  and  _214
REMARK   88  A    between atoms: _214  and  _215
REMARK   89  A    between atoms: _225  and  _227
REMARK   90  A    between atoms: _227  and  _228
REMARK   91  A    between atoms: _230  and  _232
REMARK   92  A    between atoms: _232  and  _233
REMARK   93  A    between atoms: _232  and  _235
REMARK   94  A    between atoms: _235  and  _236
REMARK   95  A    between atoms: _241  and  _242
REMARK   96  A    between atoms: _244  and  _246
REMARK   97  A    between atoms: _246  and  _247
REMARK   98  A    between atoms: _246  and  _249
REMARK   99  A    between atoms: _249  and  _250
REMARK  100  A    between atoms: _250  and  _251
REMARK  101  A    between atoms: _251  and  _252
REMARK  102  A    between atoms: _252  and  _253
REMARK  103  A    between atoms: _257  and  _259
REMARK  104  A    between atoms: _259  and  _260
REMARK  105  A    between atoms: _259  and  _262
REMARK  106  A    between atoms: _262  and  _263
REMARK  107  A    between atoms: _266  and  _268
REMARK  108  A    between atoms: _268  and  _269
REMARK  109  A    between atoms: _268  and  _271
REMARK  110  A    between atoms: _271  and  _272
REMARK  111  A    between atoms: _272  and  _273
REMARK  112  A    between atoms: _273  and  _274
REMARK  113  A    between atoms: _283  and  _285
REMARK  114  A    between atoms: _285  and  _286
REMARK  115  A    between atoms: _285  and  _288
REMARK  116  A    between atoms: _288  and  _289
REMARK  117  A    between atoms: _292  and  _294
REMARK  118  A    between atoms: _294  and  _295
REMARK  119  A    between atoms: _294  and  _297
REMARK  120  A    between atoms: _297  and  _298
REMARK  121  A    between atoms: _298  and  _299
REMARK  122  A    between atoms: _299  and  _300
REMARK  123  A    between atoms: _300  and  _301
REMARK  124  A    between atoms: _305  and  _307
REMARK  125  A    between atoms: _307  and  _308
REMARK  126  A    between atoms: _307  and  _310
REMARK  127  A    between atoms: _310  and  _311
REMARK  128  A    between atoms: _314  and  _316
REMARK  129  A    between atoms: _316  and  _317
REMARK  130  A    between atoms: _316  and  _319
REMARK  131  A    between atoms: _319  and  _320
REMARK  132  A    between atoms: _320  and  _321
REMARK  133  A    between atoms: _326  and  _328
REMARK  134  A    between atoms: _328  and  _329
REMARK  135  A    between atoms: _328  and  _331
REMARK  136  A    between atoms: _331  and  _332
REMARK  137  A    between atoms: _335  and  _337
REMARK  138  A    between atoms: _337  and  _338
REMARK  139  A    between atoms: _337  and  _340
REMARK  140  A    between atoms: _340  and  _341
REMARK  141  A    between atoms: _346  and  _347
REMARK  142  A    between atoms: _349  and  _351
REMARK  143  A    between atoms: _351  and  _352
REMARK  144  A    between atoms: _351  and  _354
REMARK  145  A    between atoms: _354  and  _355
REMARK  146  A    between atoms: _358  and  _360
REMARK  147  A    between atoms: _360  and  _361
REMARK  148  A    between atoms: _360  and  _363
REMARK  149  A    between atoms: _365  and  _367
REMARK  150  A    between atoms: _367  and  _368
REMARK  151  A    between atoms: _371  and  _373
REMARK  152  A    between atoms: _373  and  _374
REMARK  153  A    between atoms: _373  and  _376
REMARK  154  A    between atoms: _376  and  _377
REMARK  155  A    between atoms: _380  and  _382
REMARK  156  A    between atoms: _382  and  _383
REMARK  157  A    between atoms: _386  and  _388
REMARK  158  A    between atoms: _388  and  _389
REMARK  159  A    between atoms: _388  and  _391
REMARK  160  A    between atoms: _391  and  _392
REMARK  161  A    between atoms: _392  and  _506
REMARK  162  A    between atoms: _393  and  _395
REMARK  163  A    between atoms: _395  and  _396
REMARK  164  A    between atoms: _395  and  _398
REMARK  165  A    between atoms: _398  and  _399
REMARK  166  A    between atoms: _399  and  _400
REMARK  167  A    between atoms: _400  and  _401
REMARK  168  A    between atoms: _401  and  _402
REMARK  169  A    between atoms: _406  and  _408
REMARK  170  A    between atoms: _408  and  _409
REMARK  171  A    between atoms: _411  and  _413
REMARK  172  A    between atoms: _413  and  _414
REMARK  173  A    between atoms: _413  and  _416
REMARK  174  A    between atoms: _416  and  _417
REMARK  175  A    between atoms: _420  and  _422
REMARK  176  A    between atoms: _422  and  _423
REMARK  177  A    between atoms: _422  and  _425
REMARK  178  A    between atoms: _425  and  _426
REMARK  179  A    between atoms: _428  and  _430
REMARK  180  A    between atoms: _430  and  _431
REMARK  181  A    between atoms: _433  and  _435
REMARK  182  A    between atoms: _435  and  _436
REMARK  183  A    between atoms: _438  and  _440
REMARK  184  A    between atoms: _440  and  _441
REMARK  185  A    between atoms: _440  and  _443
REMARK  186  A    between atoms: _443  and  _444
REMARK  187  A    between atoms: _447  and  _449
REMARK  188  A    between atoms: _449  and  _450
REMARK  189  A    between atoms: _449  and  _452
REMARK  190  A    between atoms: _452  and  _453
REMARK  191  A    between atoms: _456  and  _458
REMARK  192  A    between atoms: _458  and  _459
REMARK  193  A    between atoms: _458  and  _461
REMARK  194  A    between atoms: _461  and  _462
REMARK  195  A    between atoms: _464  and  _466
REMARK  196  A    between atoms: _466  and  _467
REMARK  197  A    between atoms: _466  and  _469
REMARK  198  A    between atoms: _469  and  _470
REMARK  199  A    between atoms: _480  and  _482
REMARK  200  A    between atoms: _482  and  _483
REMARK  201  A    between atoms: _485  and  _487
REMARK  202  A    between atoms: _487  and  _488
REMARK  203  A    between atoms: _487  and  _490
REMARK  204  A    between atoms: _490  and  _491
REMARK  205  A    between atoms: _491  and  _492
REMARK  206  A    between atoms: _495  and  _497
REMARK  207  A    between atoms: _497  and  _498
REMARK  208  A    between atoms: _500  and  _502
REMARK  209  A    between atoms: _502  and  _503
REMARK  210  A    between atoms: _502  and  _505
REMARK  211  A    between atoms: _505  and  _506
REMARK  212  A    between atoms: _507  and  _509
REMARK  213  A    between atoms: _509  and  _510
REMARK  214  A    between atoms: _513  and  _515
REMARK  215  A    between atoms: _515  and  _516
REMARK  216  A    between atoms: _515  and  _518
REMARK  217  A    between atoms: _518  and  _519
REMARK  218  A    between atoms: _519  and  _520
REMARK  219  A    between atoms: _525  and  _527
REMARK  220  A    between atoms: _527  and  _528
REMARK  221  A    between atoms: _527  and  _530
REMARK  222  A    between atoms: _530  and  _531
REMARK  223  A    between atoms: _531  and  _532
REMARK  224  A    between atoms: _532  and  _533
REMARK  225  A    between atoms: _543  and  _544
REMARK  226  A    between atoms: _549  and  _551
REMARK  227  A    between atoms: _551  and  _552
REMARK  228  A    between atoms: _554  and  _556
REMARK  229  A    between atoms: _556  and  _557
REMARK  230  A    between atoms: _556  and  _559
REMARK  231  A    between atoms: _562  and  _564
REMARK  232  A    between atoms: _564  and  _565
REMARK  233  A    between atoms: _564  and  _567
REMARK  234  A    between atoms: _567  and  _568
REMARK  235  A    between atoms: _573  and  _574
REMARK  236  A    between atoms: _576  and  _578
REMARK  237  A    between atoms: _578  and  _579
REMARK  238  A    between atoms: _578  and  _581
REMARK  239  A    between atoms: _581  and  _582
REMARK                            x       y       z     vdW  Elec       q    Type
REMARK                         _______ _______ _______ _____ _____    ______ ____
ROOT
ATOM      1  CA  ILE A   1      38.024  15.855   6.161  0.00  0.00    +0.133 C 
ENDROOT
BRANCH   1   2
ATOM      2  N   ILE A   1      37.600  16.687   5.069  0.00  0.00    -0.239 NA
ATOM      3  H   ILE A   1      37.006  17.521   5.252  0.00  0.00    +0.142 HD
ENDBRANCH   1   2
BRANCH   1   4
ATOM      4  C   ILE A   1      36.930  15.746   7.203  0.00  0.00    +0.224 C 
ATOM      5  O   ILE A   1      36.478  16.771   7.713  0.00  0.00    -0.287 OA
ENDBRANCH   1   4
BRANCH   1   6
ATOM      6  CB  ILE A   1      39.283  16.425   6.810  0.00  0.00    +0.023 C 
ATOM      7  CG2 ILE A   1      39.662  15.592   8.008  0.00  0.00    +0.002 C 
BRANCH   6   8
ATOM      8  CG1 ILE A   1      40.444  16.380   5.824  0.00  0.00    +0.002 C 
ATOM      9  CD1 ILE A   1      41.687  17.084   6.319  0.00  0.00    +0.000 C 
ENDBRANCH   6   8
ENDBRANCH   1   6
TORSDOF 4
REMARK  Name = ../refined-set-2016/4crf/4crf_pocket.pdb
REMARK  239 active torsions:
REMARK  status: ('A' for Active; 'I' for Inactive)
REMARK    1  A    between atoms: _1  and  _5
REMARK    2  A    between atoms: _5  and  _6
REMARK    3  A    between atoms: _5  and  _8
REMARK    4  A    between atoms: _8  and  _9
REMARK    5  A    between atoms: _12  and  _14
REMARK    6  A    between atoms: _14  and  _15
REMARK    7  A    between atoms: _14  and  _17
REMARK    8  A    between atoms: _20  and  _22
REMARK    9  A    between atoms: _22  and  _23
REMARK   10  A    between atoms: _22  and  _25
REMARK   11  A    between atoms: _25  and  _26
REMARK   12  A    between atoms: _29  and  _31
REMARK   13  A    between atoms: _31  and  _32
REMARK   14  A    between atoms: _31  and  _34
REMARK   15  A    between atoms: _34  and  _35
REMARK   16  A    between atoms: _38  and  _40
REMARK   17  A    between atoms: _40  and  _41
REMARK   18  A    between atoms: _40  and  _43
REMARK   19  A    between atoms: _43  and  _44
REMARK   20  A    between atoms: _47  and  _49
REMARK   21  A    between atoms: _49  and  _50
REMARK   22  A    between atoms: _49  and  _52
REMARK   23  A    between atoms: _52  and  _53
REMARK   24  A    between atoms: _56  and  _58
REMARK   25  A    between atoms: _58  and  _59
REMARK   26  A    between atoms: _58  and  _61
REMARK   27  A    between atoms: _61  and  _62
REMARK   28  A    between atoms: _62  and  _63
REMARK   29  A    between atoms: _68  and  _70
REMARK   30  A    between atoms: _70  and  _71
REMARK   31  A    between atoms: _70  and  _73
REMARK   32  A    between atoms: _73  and  _74
REMARK   33  A    between atoms: _74  and  _75
REMARK   34  A    between atoms: _75  and  _76
REMARK   35  A    between atoms: _85  and  _87
REMARK   36  A    between atoms: _87  and  _88
REMARK   37  A    between atoms: _87  and  _90
REMARK   38  A    between atoms: _90  and  _91
REMARK   39  A    between atoms: _96  and  _98
REMARK   40  A    between atoms: _98  and  _99
REMARK   41  A    between atoms: _98  and  _101
REMARK   42  A    between atoms: _101  and  _102
REMARK   43  A    between atoms: _105  and  _107
REMARK   44  A    between atoms: _107  and  _108
REMARK   45  A    between atoms: _107  and  _110
REMARK   46  A    between atoms: _110  and  _111
REMARK   47  A    between atoms: _111  and  _146
REMARK   48  A    between atoms: _112  and  _114
REMARK   49  A    between atoms: _114  and  _115
REMARK   50  A    between atoms: _117  and  _119
REMARK   51  A    between atoms: _119  and  _120
REMARK   52  A    between atoms: _123  and  _125
REMARK   53  A    between atoms: _125  and  _126
REMARK   54  A    between atoms: _129  and  _131
REMARK   55  A    between atoms: _131  and  _132
REMARK   56  A    between atoms: _131  and  _134
REMARK   57  A    between atoms: _134  and  _135
REMARK   58  A    between atoms: _140  and  _142
REMARK   59  A    between atoms: _142  and  _143
REMARK   60  A    between atoms: _142  and  _145
REMARK   61  A    between atoms: _145  and  _146
REMARK   62  A    between atoms: _147  and  _149
REMARK   63  A    between atoms: _149  and  _150
REMARK   64  A    between atoms: _149  and  _152
REMARK   65  A    between atoms: _152  and  _153
REMARK   66  A    between atoms: _159  and  _161
REMARK   67  A    between atoms: _161  and  _162
REMARK   68  A    between atoms: _161  and  _164
REMARK   69  A    between atoms: _164  and  _165
REMARK   70  A    between atoms: _170  and  _171
REMARK   71  A    between atoms: _173  and  _175
REMARK   72  A    between atoms: _175  and  _176
REMARK   73  A    between atoms: _178  and  _180
REMARK   74  A    between atoms: _180  and  _181
REMARK   75  A    between atoms: _180  and  _183
REMARK   76  A    between atoms: _186  and  _188
REMARK   77  A    between atoms: _188  and  _189
REMARK   78  A    between atoms: _192  and  _194
REMARK   79  A    between atoms: _194  and  _195
REMARK   80  A    between atoms: _194  and  _197
REMARK   81  A    between atoms: _197  and  _198
REMARK   82  A    between atoms: _201  and  _203
REMARK   83  A    between atoms: _203  and  _204
REMARK   84  A    between atoms: _203  and  _206
REMARK   85  A    between atoms: _209  and  _211
REMARK   86  A    between atoms: _211  and  _212
REMARK   87  A    between atoms: _211  and  _214
REMARK   88  A    between atoms: _214  and  _215
REMARK   89  A    between atoms: _225  and  _227
REMARK   90  A    between atoms: _227  and  _228
REMARK   91  A    between atoms: _230  and  _232
REMARK   92  A    between atoms: _232  and  _233
REMARK   93  A    between atoms: _232  and  _235
REMARK   94  A    between atoms: _235  and  _236
REMARK   95  A    between atoms: _241  and  _242
REMARK   96  A    between atoms: _244  and  _246
REMARK   97  A    between atoms: _246  and  _247
REMARK   98  A    between atoms: _246  and  _249
REMARK   99  A    between atoms: _249  and  _250
REMARK  100  A    between atoms: _250  and  _251
REMARK  101  A    between atoms: _251  and  _252
REMARK  102  A    between atoms: _252  and  _253
REMARK  103  A    between atoms: _257  and  _259
REMARK  104  A    between atoms: _259  and  _260
REMARK  105  A    between atoms: _259  and  _262
REMARK  106  A    between atoms: _262  and  _263
REMARK  107  A    between atoms: _266  and  _268
REMARK  108  A    between atoms: _268  and  _269
REMARK  109  A    between atoms: _268  and  _271
REMARK  110  A    between atoms: _271  and  _272
REMARK  111  A    between atoms: _272  and  _273
REMARK  112  A    between atoms: _273  and  _274
REMARK  113  A    between atoms: _283  and  _285
REMARK  114  A    between atoms: _285  and  _286
REMARK  115  A    between atoms: _285  and  _288
REMARK  116  A    between atoms: _288  and  _289
REMARK  117  A    between atoms: _292  and  _294
REMARK  118  A    between atoms: _294  and  _295
REMARK  119  A    between atoms: _294  and  _297
REMARK  120  A    between atoms: _297  and  _298
REMARK  121  A    between atoms: _298  and  _299
REMARK  122  A    between atoms: _299  and  _300
REMARK  123  A    between atoms: _300  and  _301
REMARK  124  A    between atoms: _305  and  _307
REMARK  125  A    between atoms: _307  and  _308
REMARK  126  A    between atoms: _307  and  _310
REMARK  127  A    between atoms: _310  and  _311
REMARK  128  A    between atoms: _314  and  _316
REMARK  129  A    between atoms: _316  and  _317
REMARK  130  A    between atoms: _316  and  _319
REMARK  131  A    between atoms: _319  and  _320
REMARK  132  A    between atoms: _320  and  _321
REMARK  133  A    between atoms: _326  and  _328
REMARK  134  A    between atoms: _328  and  _329
REMARK  135  A    between atoms: _328  and  _331
REMARK  136  A    between atoms: _331  and  _332
REMARK  137  A    between atoms: _335  and  _337
REMARK  138  A    between atoms: _337  and  _338
REMARK  139  A    between atoms: _337  and  _340
REMARK  140  A    between atoms: _340  and  _341
REMARK  141  A    between atoms: _346  and  _347
REMARK  142  A    between atoms: _349  and  _351
REMARK  143  A    between atoms: _351  and  _352
REMARK  144  A    between atoms: _351  and  _354
REMARK  145  A    between atoms: _354  and  _355
REMARK  146  A    between atoms: _358  and  _360
REMARK  147  A    between atoms: _360  and  _361
REMARK  148  A    between atoms: _360  and  _363
REMARK  149  A    between atoms: _365  and  _367
REMARK  150  A    between atoms: _367  and  _368
REMARK  151  A    between atoms: _371  and  _373
REMARK  152  A    between atoms: _373  and  _374
REMARK  153  A    between atoms: _373  and  _376
REMARK  154  A    between atoms: _376  and  _377
REMARK  155  A    between atoms: _380  and  _382
REMARK  156  A    between atoms: _382  and  _383
REMARK  157  A    between atoms: _386  and  _388
REMARK  158  A    between atoms: _388  and  _389
REMARK  159  A    between atoms: _388  and  _391
REMARK  160  A    between atoms: _391  and  _392
REMARK  161  A    between atoms: _392  and  _506
REMARK  162  A    between atoms: _393  and  _395
REMARK  163  A    between atoms: _395  and  _396
REMARK  164  A    between atoms: _395  and  _398
REMARK  165  A    between atoms: _398  and  _399
REMARK  166  A    between atoms: _399  and  _400
REMARK  167  A    between atoms: _400  and  _401
REMARK  168  A    between atoms: _401  and  _402
REMARK  169  A    between atoms: _406  and  _408
REMARK  170  A    between atoms: _408  and  _409
REMARK  171  A    between atoms: _411  and  _413
REMARK  172  A    between atoms: _413  and  _414
REMARK  173  A    between atoms: _413  and  _416
REMARK  174  A    between atoms: _416  and  _417
REMARK  175  A    between atoms: _420  and  _422
REMARK  176  A    between atoms: _422  and  _423
REMARK  177  A    between atoms: _422  and  _425
REMARK  178  A    between atoms: _425  and  _426
REMARK  179  A    between atoms: _428  and  _430
REMARK  180  A    between atoms: _430  and  _431
REMARK  181  A    between atoms: _433  and  _435
REMARK  182  A    between atoms: _435  and  _436
REMARK  183  A    between atoms: _438  and  _440
REMARK  184  A    between atoms: _440  and  _441
REMARK  185  A    between atoms: _440  and  _443
REMARK  186  A    between atoms: _443  and  _444
REMARK  187  A    between atoms: _447  and  _449
REMARK  188  A    between atoms: _449  and  _450
REMARK  189  A    between atoms: _449  and  _452
REMARK  190  A    between atoms: _452  and  _453
REMARK  191  A    between atoms: _456  and  _458
REMARK  192  A    between atoms: _458  and  _459
REMARK  193  A    between atoms: _458  and  _461
REMARK  194  A    between atoms: _461  and  _462
REMARK  195  A    between atoms: _464  and  _466
REMARK  196  A    between atoms: _466  and  _467
REMARK  197  A    between atoms: _466  and  _469
REMARK  198  A    between atoms: _469  and  _470
REMARK  199  A    between atoms: _480  and  _482
REMARK  200  A    between atoms: _482  and  _483
REMARK  201  A    between atoms: _485  and  _487
REMARK  202  A    between atoms: _487  and  _488
REMARK  203  A    between atoms: _487  and  _490
REMARK  204  A    between atoms: _490  and  _491
REMARK  205  A    between atoms: _491  and  _492
REMARK  206  A    between atoms: _495  and  _497
REMARK  207  A    between atoms: _497  and  _498
REMARK  208  A    between atoms: _500  and  _502
REMARK  209  A    between atoms: _502  and  _503
REMARK  210  A    between atoms: _502  and  _505
REMARK  211  A    between atoms: _505  and  _506
REMARK  212  A    between atoms: _507  and  _509
REMARK  213  A    between atoms: _509  and  _510
REMARK  214  A    between atoms: _513  and  _515
REMARK  215  A    between atoms: _515  and  _516
REMARK  216  A    between atoms: _515  and  _518
REMARK  217  A    between atoms: _518  and  _519
REMARK  218  A    between atoms: _519  and  _520
REMARK  219  A    between atoms: _525  and  _527
REMARK  220  A    between atoms: _527  and  _528
REMARK  221  A    between atoms: _527  and  _530
REMARK  222  A    between atoms: _530  and  _531
REMARK  223  A    between atoms: _531  and  _532
REMARK  224  A    between atoms: _532  and  _533
REMARK  225  A    between atoms: _543  and  _544
REMARK  226  A    between atoms: _549  and  _551
REMARK  227  A    between atoms: _551  and  _552
REMARK  228  A    between atoms: _554  and  _556
REMARK  229  A    between atoms: _556  and  _557
REMARK  230  A    between atoms: _556  and  _559
REMARK  231  A    between atoms: _562  and  _564
REMARK  232  A    between atoms: _564  and  _565
REMARK  233  A    between atoms: _564  and  _567
REMARK  234  A    between atoms: _567  and  _568
REMARK  235  A    between atoms: _573  and  _574
REMARK  236  A    between atoms: _576  and  _578
REMARK  237  A    between atoms: _578  and  _579
REMARK  238  A    between atoms: _578  and  _581
REMARK  239  A    between atoms: _581  and  _582
REMARK                            x       y       z     vdW  Elec       q    Type
REMARK                         _______ _______ _______ _____ _____    ______ ____
ROOT
ATOM      1  CG  TYR A   1      46.990  13.146  19.650  0.00  0.00    -0.020 A 
ATOM      2  CD2 TYR A   1      48.263  13.253  19.122  0.00  0.00    -0.001 A 
ATOM      3  CE2 TYR A   1      48.466  13.615  17.789  0.00  0.00    +0.036 A 
ATOM      4  CZ  TYR A   1      47.383  13.873  16.977  0.00  0.00    +0.134 A 
ATOM      5  CE1 TYR A   1      46.105  13.776  17.491  0.00  0.00    +0.036 A 
ATOM      6  CD1 TYR A   1      45.917  13.422  18.817  0.00  0.00    -0.001 A 
ENDROOT
BRANCH   4   7
ATOM      7  OH  TYR A   1      47.626  14.247  15.653  0.00  0.00    -0.506 OA
ATOM      8  HH  TYR A   1      47.255  15.151  15.493  0.00  0.00    +0.292 HD
ENDBRANCH   4   7
BRANCH   1   9
ATOM      9  CB  TYR A   1      46.789  12.775  21.085  0.00  0.00    +0.051 C 
BRANCH   9  10
ATOM     10  CA  TYR A   1      47.010  11.292  21.379  0.00  0.00    +0.137 C 
BRANCH  10  11
ATOM     11  N   TYR A   1      45.980  10.491  20.703  0.00  0.00    -0.239 NA
ATOM     12  H   TYR A   1      45.028  10.468  21.121  0.00  0.00    +0.142 HD
ENDBRANCH  10  11
BRANCH  10  13
ATOM     13  C   TYR A   1      46.980  11.055  22.902  0.00  0.00    +0.224 C 
ATOM     14  O   TYR A   1      46.608  11.935  23.708  0.00  0.00    -0.287 OA
ENDBRANCH  10  13
ENDBRANCH   9  10
ENDBRANCH   1   9
TORSDOF 5
REMARK  Name = ../refined-set-2016/4crf/4crf_pocket.pdb
REMARK  239 active torsions:
REMARK  status: ('A' for Active; 'I' for Inactive)
REMARK    1  A    between atoms: _1  and  _5
REMARK    2  A    between atoms: _5  and  _6
REMARK    3  A    between atoms: _5  and  _8
REMARK    4  A    between atoms: _8  and  _9
REMARK    5  A    between atoms: _12  and  _14
REMARK    6  A    between atoms: _14  and  _15
REMARK    7  A    between atoms: _14  and  _17
REMARK    8  A    between atoms: _20  and  _22
REMARK    9  A    between atoms: _22  and  _23
REMARK   10  A    between atoms: _22  and  _25
REMARK   11  A    between atoms: _25  and  _26
REMARK   12  A    between atoms: _29  and  _31
REMARK   13  A    between atoms: _31  and  _32
REMARK   14  A    between atoms: _31  and  _34
REMARK   15  A    between atoms: _34  and  _35
REMARK   16  A    between atoms: _38  and  _40
REMARK   17  A    between atoms: _40  and  _41
REMARK   18  A    between atoms: _40  and  _43
REMARK   19  A    between atoms: _43  and  _44
REMARK   20  A    between atoms: _47  and  _49
REMARK   21  A    between atoms: _49  and  _50
REMARK   22  A    between atoms: _49  and  _52
REMARK   23  A    between atoms: _52  and  _53
REMARK   24  A    between atoms: _56  and  _58
REMARK   25  A    between atoms: _58  and  _59
REMARK   26  A    between atoms: _58  and  _61
REMARK   27  A    between atoms: _61  and  _62
REMARK   28  A    between atoms: _62  and  _63
REMARK   29  A    between atoms: _68  and  _70
REMARK   30  A    between atoms: _70  and  _71
REMARK   31  A    between atoms: _70  and  _73
REMARK   32  A    between atoms: _73  and  _74
REMARK   33  A    between atoms: _74  and  _75
REMARK   34  A    between atoms: _75  and  _76
REMARK   35  A    between atoms: _85  and  _87
REMARK   36  A    between atoms: _87  and  _88
REMARK   37  A    between atoms: _87  and  _90
REMARK   38  A    between atoms: _90  and  _91
REMARK   39  A    between atoms: _96  and  _98
REMARK   40  A    between atoms: _98  and  _99
REMARK   41  A    between atoms: _98  and  _101
REMARK   42  A    between atoms: _101  and  _102
REMARK   43  A    between atoms: _105  and  _107
REMARK   44  A    between atoms: _107  and  _108
REMARK   45  A    between atoms: _107  and  _110
REMARK   46  A    between atoms: _110  and  _111
REMARK   47  A    between atoms: _111  and  _146
REMARK   48  A    between atoms: _112  and  _114
REMARK   49  A    between atoms: _114  and  _115
REMARK   50  A    between atoms: _117  and  _119
REMARK   51  A    between atoms: _119  and  _120
REMARK   52  A    between atoms: _123  and  _125
REMARK   53  A    between atoms: _125  and  _126
REMARK   54  A    between atoms: _129  and  _131
REMARK   55  A    between atoms: _131  and  _132
REMARK   56  A    between atoms: _131  and  _134
REMARK   57  A    between atoms: _134  and  _135
REMARK   58  A    between atoms: _140  and  _142
REMARK   59  A    between atoms: _142  and  _143
REMARK   60  A    between atoms: _142  and  _145
REMARK   61  A    between atoms: _145  and  _146
REMARK   62  A    between atoms: _147  and  _149
REMARK   63  A    between atoms: _149  and  _150
REMARK   64  A    between atoms: _149  and  _152
REMARK   65  A    between atoms: _152  and  _153
REMARK   66  A    between atoms: _159  and  _161
REMARK   67  A    between atoms: _161  and  _162
REMARK   68  A    between atoms: _161  and  _164
REMARK   69  A    between atoms: _164  and  _165
REMARK   70  A    between atoms: _170  and  _171
REMARK   71  A    between atoms: _173  and  _175
REMARK   72  A    between atoms: _175  and  _176
REMARK   73  A    between atoms: _178  and  _180
REMARK   74  A    between atoms: _180  and  _181
REMARK   75  A    between atoms: _180  and  _183
REMARK   76  A    between atoms: _186  and  _188
REMARK   77  A    between atoms: _188  and  _189
REMARK   78  A    between atoms: _192  and  _194
REMARK   79  A    between atoms: _194  and  _195
REMARK   80  A    between atoms: _194  and  _197
REMARK   81  A    between atoms: _197  and  _198
REMARK   82  A    between atoms: _201  and  _203
REMARK   83  A    between atoms: _203  and  _204
REMARK   84  A    between atoms: _203  and  _206
REMARK   85  A    between atoms: _209  and  _211
REMARK   86  A    between atoms: _211  and  _212
REMARK   87  A    between atoms: _211  and  _214
REMARK   88  A    between atoms: _214  and  _215
REMARK   89  A    between atoms: _225  and  _227
REMARK   90  A    between atoms: _227  and  _228
REMARK   91  A    between atoms: _230  and  _232
REMARK   92  A    between atoms: _232  and  _233
REMARK   93  A    between atoms: _232  and  _235
REMARK   94  A    between atoms: _235  and  _236
REMARK   95  A    between atoms: _241  and  _242
REMARK   96  A    between atoms: _244  and  _246
REMARK   97  A    between atoms: _246  and  _247
REMARK   98  A    between atoms: _246  and  _249
REMARK   99  A    between atoms: _249  and  _250
REMARK  100  A    between atoms: _250  and  _251
REMARK  101  A    between atoms: _251  and  _252
REMARK  102  A    between atoms: _252  and  _253
REMARK  103  A    between atoms: _257  and  _259
REMARK  104  A    between atoms: _259  and  _260
REMARK  105  A    between atoms: _259  and  _262
REMARK  106  A    between atoms: _262  and  _263
REMARK  107  A    between atoms: _266  and  _268
REMARK  108  A    between atoms: _268  and  _269
REMARK  109  A    between atoms: _268  and  _271
REMARK  110  A    between atoms: _271  and  _272
REMARK  111  A    between atoms: _272  and  _273
REMARK  112  A    between atoms: _273  and  _274
REMARK  113  A    between atoms: _283  and  _285
REMARK  114  A    between atoms: _285  and  _286
REMARK  115  A    between atoms: _285  and  _288
REMARK  116  A    between atoms: _288  and  _289
REMARK  117  A    between atoms: _292  and  _294
REMARK  118  A    between atoms: _294  and  _295
REMARK  119  A    between atoms: _294  and  _297
REMARK  120  A    between atoms: _297  and  _298
REMARK  121  A    between atoms: _298  and  _299
REMARK  122  A    between atoms: _299  and  _300
REMARK  123  A    between atoms: _300  and  _301
REMARK  124  A    between atoms: _305  and  _307
REMARK  125  A    between atoms: _307  and  _308
REMARK  126  A    between atoms: _307  and  _310
REMARK  127  A    between atoms: _310  and  _311
REMARK  128  A    between atoms: _314  and  _316
REMARK  129  A    between atoms: _316  and  _317
REMARK  130  A    between atoms: _316  and  _319
REMARK  131  A    between atoms: _319  and  _320
REMARK  132  A    between atoms: _320  and  _321
REMARK  133  A    between atoms: _326  and  _328
REMARK  134  A    between atoms: _328  and  _329
REMARK  135  A    between atoms: _328  and  _331
REMARK  136  A    between atoms: _331  and  _332
REMARK  137  A    between atoms: _335  and  _337
REMARK  138  A    between atoms: _337  and  _338
REMARK  139  A    between atoms: _337  and  _340
REMARK  140  A    between atoms: _340  and  _341
REMARK  141  A    between atoms: _346  and  _347
REMARK  142  A    between atoms: _349  and  _351
REMARK  143  A    between atoms: _351  and  _352
REMARK  144  A    between atoms: _351  and  _354
REMARK  145  A    between atoms: _354  and  _355
REMARK  146  A    between atoms: _358  and  _360
REMARK  147  A    between atoms: _360  and  _361
REMARK  148  A    between atoms: _360  and  _363
REMARK  149  A    between atoms: _365  and  _367
REMARK  150  A    between atoms: _367  and  _368
REMARK  151  A    between atoms: _371  and  _373
REMARK  152  A    between atoms: _373  and  _374
REMARK  153  A    between atoms: _373  and  _376
REMARK  154  A    between atoms: _376  and  _377
REMARK  155  A    between atoms: _380  and  _382
REMARK  156  A    between atoms: _382  and  _383
REMARK  157  A    between atoms: _386  and  _388
REMARK  158  A    between atoms: _388  and  _389
REMARK  159  A    between atoms: _388  and  _391
REMARK  160  A    between atoms: _391  and  _392
REMARK  161  A    between atoms: _392  and  _506
REMARK  162  A    between atoms: _393  and  _395
REMARK  163  A    between atoms: _395  and  _396
REMARK  164  A    between atoms: _395  and  _398
REMARK  165  A    between atoms: _398  and  _399
REMARK  166  A    between atoms: _399  and  _400
REMARK  167  A    between atoms: _400  and  _401
REMARK  168  A    between atoms: _401  and  _402
REMARK  169  A    between atoms: _406  and  _408
REMARK  170  A    between atoms: _408  and  _409
REMARK  171  A    between atoms: _411  and  _413
REMARK  172  A    between atoms: _413  and  _414
REMARK  173  A    between atoms: _413  and  _416
REMARK  174  A    between atoms: _416  and  _417
REMARK  175  A    between atoms: _420  and  _422
REMARK  176  A    between atoms: _422  and  _423
REMARK  177  A    between atoms: _422  and  _425
REMARK  178  A    between atoms: _425  and  _426
REMARK  179  A    between atoms: _428  and  _430
REMARK  180  A    between atoms: _430  and  _431
REMARK  181  A    between atoms: _433  and  _435
REMARK  182  A    between atoms: _435  and  _436
REMARK  183  A    between atoms: _438  and  _440
REMARK  184  A    between atoms: _440  and  _441
REMARK  185  A    between atoms: _440  and  _443
REMARK  186  A    between atoms: _443  and  _444
REMARK  187  A    between atoms: _447  and  _449
REMARK  188  A    between atoms: _449  and  _450
REMARK  189  A    between atoms: _449  and  _452
REMARK  190  A    between atoms: _452  and  _453
REMARK  191  A    between atoms: _456  and  _458
REMARK  192  A    between atoms: _458  and  _459
REMARK  193  A    between atoms: _458  and  _461
REMARK  194  A    between atoms: _461  and  _462
REMARK  195  A    between atoms: _464  and  _466
REMARK  196  A    between atoms: _466  and  _467
REMARK  197  A    between atoms: _466  and  _469
REMARK  198  A    between atoms: _469  and  _470
REMARK  199  A    between atoms: _480  and  _482
REMARK  200  A    between atoms: _482  and  _483
REMARK  201  A    between atoms: _485  and  _487
REMARK  202  A    between atoms: _487  and  _488
REMARK  203  A    between atoms: _487  and  _490
REMARK  204  A    between atoms: _490  and  _491
REMARK  205  A    between atoms: _491  and  _492
REMARK  206  A    between atoms: _495  and  _497
REMARK  207  A    between atoms: _497  and  _498
REMARK  208  A    between atoms: _500  and  _502
REMARK  209  A    between atoms: _502  and  _503
REMARK  210  A    between atoms: _502  and  _505
REMARK  211  A    between atoms: _505  and  _506
REMARK  212  A    between atoms: _507  and  _509
REMARK  213  A    between atoms: _509  and  _510
REMARK  214  A    between atoms: _513  and  _515
REMARK  215  A    between atoms: _515  and  _516
REMARK  216  A    between atoms: _515  and  _518
REMARK  217  A    between atoms: _518  and  _519
REMARK  218  A    between atoms: _519  and  _520
REMARK  219  A    between atoms: _525  and  _527
REMARK  220  A    between atoms: _527  and  _528
REMARK  221  A    between atoms: _527  and  _530
REMARK  222  A    between atoms: _530  and  _531
REMARK  223  A    between atoms: _531  and  _532
REMARK  224  A    between atoms: _532  and  _533
REMARK  225  A    between atoms: _543  and  _544
REMARK  226  A    between atoms: _549  and  _551
REMARK  227  A    between atoms: _551  and  _552
REMARK  228  A    between atoms: _554  and  _556
REMARK  229  A    between atoms: _556  and  _557
REMARK  230  A    between atoms: _556  and  _559
REMARK  231  A    between atoms: _562  and  _564
REMARK  232  A    between atoms: _564  and  _565
REMARK  233  A    between atoms: _564  and  _567
REMARK  234  A    between atoms: _567  and  _568
REMARK  235  A    between atoms: _573  and  _574
REMARK  236  A    between atoms: _576  and  _578
REMARK  237  A    between atoms: _578  and  _579
REMARK  238  A    between atoms: _578  and  _581
REMARK  239  A    between atoms: _581  and  _582
REMARK                            x       y       z     vdW  Elec       q    Type
REMARK                         _______ _______ _______ _____ _____    ______ ____
ROOT
ATOM      1  C   ILE A   1      39.172  19.027  16.789  0.00  0.00    +0.238 C 
ATOM      2  N   CYS A   2      38.917  17.769  16.482  0.00  0.00    -0.297 N 
ATOM      3  H   CYS A   2      38.051  17.325  16.849  0.00  0.00    +0.150 HD
ATOM      4  O   ILE A   1      40.112  19.669  16.317  0.00  0.00    -0.274 OA
ENDROOT
BRANCH   1   5
ATOM      5  CA  ILE A   1      38.235  19.644  17.808  0.00  0.00    +0.145 C 
BRANCH   5   6
ATOM      6  N   ILE A   1      39.031  20.503  18.657  0.00  0.00    -0.238 NA
ATOM      7  H   ILE A   1      39.762  21.119  18.247  0.00  0.00    +0.142 HD
ENDBRANCH   5   6
BRANCH   5   8
ATOM      8  CB  ILE A   1      37.033  20.417  17.189  0.00  0.00    +0.025 C 
ATOM      9  CG2 ILE A   1      37.484  21.369  16.083  0.00  0.00    +0.002 C 
BRANCH   8  10
ATOM     10  CG1 ILE A   1      35.985  19.441  16.693  0.00  0.00    +0.002 C 
ATOM     11  CD1 ILE A   1      34.626  20.069  16.512  0.00  0.00    +0.000 C 
ENDBRANCH   8  10
ENDBRANCH   5   8
ENDBRANCH   1   5
BRANCH   2  12
ATOM     12  CA  CYS A   2      39.809  16.989  15.649  0.00  0.00    +0.160 C 
BRANCH  12  13
ATOM     13  C   CYS A   2      39.121  16.602  14.368  0.00  0.00    +0.242 C 
ATOM     14  O   CYS A   2      37.909  16.598  14.305  0.00  0.00    -0.273 OA
ATOM     15  N   ALA A   3      39.923  16.287  13.354  0.00  0.00    -0.298 N 
ATOM     16  H   ALA A   3      40.951  16.321  13.507  0.00  0.00    +0.150 HD
BRANCH  15  17
ATOM     17  CA  ALA A   3      39.428  15.896  12.037  0.00  0.00    +0.137 C 
ATOM     18  CB  ALA A   3      38.998  17.101  11.221  0.00  0.00    +0.030 C 
BRANCH  17  19
ATOM     19  C   ALA A   3      40.526  15.172  11.314  0.00  0.00    +0.227 C 
ATOM     20  O   ALA A   3      41.684  15.569  11.367  0.00  0.00    -0.286 OA
ENDBRANCH  17  19
ENDBRANCH  15  17
ENDBRANCH  12  13
BRANCH  12  21
ATOM     21  CB  CYS A   2      40.241  15.731  16.396  0.00  0.00    +0.098 C 
ATOM     22  SG  CYS A   2      41.140  16.086  17.902  0.00  0.00    -0.080 S 
ENDBRANCH  12  21
ENDBRANCH   2  12
TORSDOF 9
REMARK  Name = ../refined-set-2016/4crf/4crf_pocket.pdb
REMARK  239 active torsions:
REMARK  status: ('A' for Active; 'I' for Inactive)
REMARK    1  A    between atoms: _1  and  _5
REMARK    2  A    between atoms: _5  and  _6
REMARK    3  A    between atoms: _5  and  _8
REMARK    4  A    between atoms: _8  and  _9
REMARK    5  A    between atoms: _12  and  _14
REMARK    6  A    between atoms: _14  and  _15
REMARK    7  A    between atoms: _14  and  _17
REMARK    8  A    between atoms: _20  and  _22
REMARK    9  A    between atoms: _22  and  _23
REMARK   10  A    between atoms: _22  and  _25
REMARK   11  A    between atoms: _25  and  _26
REMARK   12  A    between atoms: _29  and  _31
REMARK   13  A    between atoms: _31  and  _32
REMARK   14  A    between atoms: _31  and  _34
REMARK   15  A    between atoms: _34  and  _35
REMARK   16  A    between atoms: _38  and  _40
REMARK   17  A    between atoms: _40  and  _41
REMARK   18  A    between atoms: _40  and  _43
REMARK   19  A    between atoms: _43  and  _44
REMARK   20  A    between atoms: _47  and  _49
REMARK   21  A    between atoms: _49  and  _50
REMARK   22  A    between atoms: _49  and  _52
REMARK   23  A    between atoms: _52  and  _53
REMARK   24  A    between atoms: _56  and  _58
REMARK   25  A    between atoms: _58  and  _59
REMARK   26  A    between atoms: _58  and  _61
REMARK   27  A    between atoms: _61  and  _62
REMARK   28  A    between atoms: _62  and  _63
REMARK   29  A    between atoms: _68  and  _70
REMARK   30  A    between atoms: _70  and  _71
REMARK   31  A    between atoms: _70  and  _73
REMARK   32  A    between atoms: _73  and  _74
REMARK   33  A    between atoms: _74  and  _75
REMARK   34  A    between atoms: _75  and  _76
REMARK   35  A    between atoms: _85  and  _87
REMARK   36  A    between atoms: _87  and  _88
REMARK   37  A    between atoms: _87  and  _90
REMARK   38  A    between atoms: _90  and  _91
REMARK   39  A    between atoms: _96  and  _98
REMARK   40  A    between atoms: _98  and  _99
REMARK   41  A    between atoms: _98  and  _101
REMARK   42  A    between atoms: _101  and  _102
REMARK   43  A    between atoms: _105  and  _107
REMARK   44  A    between atoms: _107  and  _108
REMARK   45  A    between atoms: _107  and  _110
REMARK   46  A    between atoms: _110  and  _111
REMARK   47  A    between atoms: _111  and  _146
REMARK   48  A    between atoms: _112  and  _114
REMARK   49  A    between atoms: _114  and  _115
REMARK   50  A    between atoms: _117  and  _119
REMARK   51  A    between atoms: _119  and  _120
REMARK   52  A    between atoms: _123  and  _125
REMARK   53  A    between atoms: _125  and  _126
REMARK   54  A    between atoms: _129  and  _131
REMARK   55  A    between atoms: _131  and  _132
REMARK   56  A    between atoms: _131  and  _134
REMARK   57  A    between atoms: _134  and  _135
REMARK   58  A    between atoms: _140  and  _142
REMARK   59  A    between atoms: _142  and  _143
REMARK   60  A    between atoms: _142  and  _145
REMARK   61  A    between atoms: _145  and  _146
REMARK   62  A    between atoms: _147  and  _149
REMARK   63  A    between atoms: _149  and  _150
REMARK   64  A    between atoms: _149  and  _152
REMARK   65  A    between atoms: _152  and  _153
REMARK   66  A    between atoms: _159  and  _161
REMARK   67  A    between atoms: _161  and  _162
REMARK   68  A    between atoms: _161  and  _164
REMARK   69  A    between atoms: _164  and  _165
REMARK   70  A    between atoms: _170  and  _171
REMARK   71  A    between atoms: _173  and  _175
REMARK   72  A    between atoms: _175  and  _176
REMARK   73  A    between atoms: _178  and  _180
REMARK   74  A    between atoms: _180  and  _181
REMARK   75  A    between atoms: _180  and  _183
REMARK   76  A    between atoms: _186  and  _188
REMARK   77  A    between atoms: _188  and  _189
REMARK   78  A    between atoms: _192  and  _194
REMARK   79  A    between atoms: _194  and  _195
REMARK   80  A    between atoms: _194  and  _197
REMARK   81  A    between atoms: _197  and  _198
REMARK   82  A    between atoms: _201  and  _203
REMARK   83  A    between atoms: _203  and  _204
REMARK   84  A    between atoms: _203  and  _206
REMARK   85  A    between atoms: _209  and  _211
REMARK   86  A    between atoms: _211  and  _212
REMARK   87  A    between atoms: _211  and  _214
REMARK   88  A    between atoms: _214  and  _215
REMARK   89  A    between atoms: _225  and  _227
REMARK   90  A    between atoms: _227  and  _228
REMARK   91  A    between atoms: _230  and  _232
REMARK   92  A    between atoms: _232  and  _233
REMARK   93  A    between atoms: _232  and  _235
REMARK   94  A    between atoms: _235  and  _236
REMARK   95  A    between atoms: _241  and  _242
REMARK   96  A    between atoms: _244  and  _246
REMARK   97  A    between atoms: _246  and  _247
REMARK   98  A    between atoms: _246  and  _249
REMARK   99  A    between atoms: _249  and  _250
REMARK  100  A    between atoms: _250  and  _251
REMARK  101  A    between atoms: _251  and  _252
REMARK  102  A    between atoms: _252  and  _253
REMARK  103  A    between atoms: _257  and  _259
REMARK  104  A    between atoms: _259  and  _260
REMARK  105  A    between atoms: _259  and  _262
REMARK  106  A    between atoms: _262  and  _263
REMARK  107  A    between atoms: _266  and  _268
REMARK  108  A    between atoms: _268  and  _269
REMARK  109  A    between atoms: _268  and  _271
REMARK  110  A    between atoms: _271  and  _272
REMARK  111  A    between atoms: _272  and  _273
REMARK  112  A    between atoms: _273  and  _274
REMARK  113  A    between atoms: _283  and  _285
REMARK  114  A    between atoms: _285  and  _286
REMARK  115  A    between atoms: _285  and  _288
REMARK  116  A    between atoms: _288  and  _289
REMARK  117  A    between atoms: _292  and  _294
REMARK  118  A    between atoms: _294  and  _295
REMARK  119  A    between atoms: _294  and  _297
REMARK  120  A    between atoms: _297  and  _298
REMARK  121  A    between atoms: _298  and  _299
REMARK  122  A    between atoms: _299  and  _300
REMARK  123  A    between atoms: _300  and  _301
REMARK  124  A    between atoms: _305  and  _307
REMARK  125  A    between atoms: _307  and  _308
REMARK  126  A    between atoms: _307  and  _310
REMARK  127  A    between atoms: _310  and  _311
REMARK  128  A    between atoms: _314  and  _316
REMARK  129  A    between atoms: _316  and  _317
REMARK  130  A    between atoms: _316  and  _319
REMARK  131  A    between atoms: _319  and  _320
REMARK  132  A    between atoms: _320  and  _321
REMARK  133  A    between atoms: _326  and  _328
REMARK  134  A    between atoms: _328  and  _329
REMARK  135  A    between atoms: _328  and  _331
REMARK  136  A    between atoms: _331  and  _332
REMARK  137  A    between atoms: _335  and  _337
REMARK  138  A    between atoms: _337  and  _338
REMARK  139  A    between atoms: _337  and  _340
REMARK  140  A    between atoms: _340  and  _341
REMARK  141  A    between atoms: _346  and  _347
REMARK  142  A    between atoms: _349  and  _351
REMARK  143  A    between atoms: _351  and  _352
REMARK  144  A    between atoms: _351  and  _354
REMARK  145  A    between atoms: _354  and  _355
REMARK  146  A    between atoms: _358  and  _360
REMARK  147  A    between atoms: _360  and  _361
REMARK  148  A    between atoms: _360  and  _363
REMARK  149  A    between atoms: _365  and  _367
REMARK  150  A    between atoms: _367  and  _368
REMARK  151  A    between atoms: _371  and  _373
REMARK  152  A    between atoms: _373  and  _374
REMARK  153  A    between atoms: _373  and  _376
REMARK  154  A    between atoms: _376  and  _377
REMARK  155  A    between atoms: _380  and  _382
REMARK  156  A    between atoms: _382  and  _383
REMARK  157  A    between atoms: _386  and  _388
REMARK  158  A    between atoms: _388  and  _389
REMARK  159  A    between atoms: _388  and  _391
REMARK  160  A    between atoms: _391  and  _392
REMARK  161  A    between atoms: _392  and  _506
REMARK  162  A    between atoms: _393  and  _395
REMARK  163  A    between atoms: _395  and  _396
REMARK  164  A    between atoms: _395  and  _398
REMARK  165  A    between atoms: _398  and  _399
REMARK  166  A    between atoms: _399  and  _400
REMARK  167  A    between atoms: _400  and  _401
REMARK  168  A    between atoms: _401  and  _402
REMARK  169  A    between atoms: _406  and  _408
REMARK  170  A    between atoms: _408  and  _409
REMARK  171  A    between atoms: _411  and  _413
REMARK  172  A    between atoms: _413  and  _414
REMARK  173  A    between atoms: _413  and  _416
REMARK  174  A    between atoms: _416  and  _417
REMARK  175  A    between atoms: _420  and  _422
REMARK  176  A    between atoms: _422  and  _423
REMARK  177  A    between atoms: _422  and  _425
REMARK  178  A    between atoms: _425  and  _426
REMARK  179  A    between atoms: _428  and  _430
REMARK  180  A    between atoms: _430  and  _431
REMARK  181  A    between atoms: _433  and  _435
REMARK  182  A    between atoms: _435  and  _436
REMARK  183  A    between atoms: _438  and  _440
REMARK  184  A    between atoms: _440  and  _441
REMARK  185  A    between atoms: _440  and  _443
REMARK  186  A    between atoms: _443  and  _444
REMARK  187  A    between atoms: _447  and  _449
REMARK  188  A    between atoms: _449  and  _450
REMARK  189  A    between atoms: _449  and  _452
REMARK  190  A    between atoms: _452  and  _453
REMARK  191  A    between atoms: _456  and  _458
REMARK  192  A    between atoms: _458  and  _459
REMARK  193  A    between atoms: _458  and  _461
REMARK  194  A    between atoms: _461  and  _462
REMARK  195  A    between atoms: _464  and  _466
REMARK  196  A    between atoms: _466  and  _467
REMARK  197  A    between atoms: _466  and  _469
REMARK  198  A    between atoms: _469  and  _470
REMARK  199  A    between atoms: _480  and  _482
REMARK  200  A    between atoms: _482  and  _483
REMARK  201  A    between atoms: _485  and  _487
REMARK  202  A    between atoms: _487  and  _488
REMARK  203  A    between atoms: _487  and  _490
REMARK  204  A    between atoms: _490  and  _491
REMARK  205  A    between atoms: _491  and  _492
REMARK  206  A    between atoms: _495  and  _497
REMARK  207  A    between atoms: _497  and  _498
REMARK  208  A    between atoms: _500  and  _502
REMARK  209  A    between atoms: _502  and  _503
REMARK  210  A    between atoms: _502  and  _505
REMARK  211  A    between atoms: _505  and  _506
REMARK  212  A    between atoms: _507  and  _509
REMARK  213  A    between atoms: _509  and  _510
REMARK  214  A    between atoms: _513  and  _515
REMARK  215  A    between atoms: _515  and  _516
REMARK  216  A    between atoms: _515  and  _518
REMARK  217  A    between atoms: _518  and  _519
REMARK  218  A    between atoms: _519  and  _520
REMARK  219  A    between atoms: _525  and  _527
REMARK  220  A    between atoms: _527  and  _528
REMARK  221  A    between atoms: _527  and  _530
REMARK  222  A    between atoms: _530  and  _531
REMARK  223  A    between atoms: _531  and  _532
REMARK  224  A    between atoms: _532  and  _533
REMARK  225  A    between atoms: _543  and  _544
REMARK  226  A    between atoms: _549  and  _551
REMARK  227  A    between atoms: _551  and  _552
REMARK  228  A    between atoms: _554  and  _556
REMARK  229  A    between atoms: _556  and  _557
REMARK  230  A    between atoms: _556  and  _559
REMARK  231  A    between atoms: _562  and  _564
REMARK  232  A    between atoms: _564  and  _565
REMARK  233  A    between atoms: _564  and  _567
REMARK  234  A    between atoms: _567  and  _568
REMARK  235  A    between atoms: _573  and  _574
REMARK  236  A    between atoms: _576  and  _578
REMARK  237  A    between atoms: _578  and  _579
REMARK  238  A    between atoms: _578  and  _581
REMARK  239  A    between atoms: _581  and  _582
REMARK                            x       y       z     vdW  Elec       q    Type
REMARK                         _______ _______ _______ _____ _____    ______ ____
ROOT
ATOM      1  CA  CYS A   8      51.098  15.389   8.536  0.00  0.00    +0.160 C 
ENDROOT
BRANCH   1   2
ATOM      2  N   CYS A   8      52.259  14.949   9.313  0.00  0.00    -0.296 N 
ATOM      3  C   GLY A   7      52.351  15.297  10.592  0.00  0.00    +0.243 C 
ATOM      4  O   GLY A   7      51.625  16.172  11.080  0.00  0.00    -0.273 OA
ATOM      5  H   CYS A   8      53.002  14.372   8.869  0.00  0.00    +0.150 HD
BRANCH   3   6
ATOM      6  CA  GLY A   7      53.381  14.587  11.466  0.00  0.00    +0.176 C 
BRANCH   6   7
ATOM      7  N   GLY A   7      53.064  14.902  12.867  0.00  0.00    -0.295 N 
ATOM      8  C   GLU A   6      52.153  14.227  13.560  0.00  0.00    +0.241 C 
ATOM      9  O   GLU A   6      51.581  13.208  13.134  0.00  0.00    -0.273 OA
ATOM     10  H   GLY A   7      53.571  15.682  13.332  0.00  0.00    +0.150 HD
BRANCH   8  11
ATOM     11  CA  GLU A   6      51.867  14.735  14.945  0.00  0.00    +0.149 C 
BRANCH  11  12
ATOM     12  N   GLU A   6      50.591  15.430  14.967  0.00  0.00    -0.297 N 
ATOM     13  H   GLU A   6      49.714  14.882  15.074  0.00  0.00    +0.150 HD
ATOM     14  C   GLY A   5      50.523  16.761  14.852  0.00  0.00    +0.243 C 
ATOM     15  O   GLY A   5      51.522  17.488  14.784  0.00  0.00    -0.273 OA
BRANCH  14  16
ATOM     16  CA  GLY A   5      49.138  17.389  14.803  0.00  0.00    +0.176 C 
BRANCH  16  17
ATOM     17  N   GLY A   5      49.280  18.838  14.935  0.00  0.00    -0.295 N 
ATOM     18  C   TRP A   4      48.261  19.654  15.138  0.00  0.00    +0.241 C 
ATOM     19  O   TRP A   4      47.089  19.273  15.157  0.00  0.00    -0.273 OA
ATOM     20  H   GLY A   5      50.233  19.248  14.865  0.00  0.00    +0.150 HD
BRANCH  18  21
ATOM     21  CA  TRP A   4      48.655  21.112  15.381  0.00  0.00    +0.153 C 
BRANCH  21  22
ATOM     22  N   TRP A   4      47.515  22.051  15.375  0.00  0.00    -0.297 N 
ATOM     23  H   TRP A   4      46.546  21.678  15.435  0.00  0.00    +0.150 HD
ATOM     24  C   SER A   3      47.706  23.369  15.294  0.00  0.00    +0.243 C 
ATOM     25  O   SER A   3      48.815  23.853  15.105  0.00  0.00    -0.273 OA
BRANCH  24  26
ATOM     26  CA  SER A   3      46.488  24.291  15.370  0.00  0.00    +0.178 C 
BRANCH  26  27
ATOM     27  N   SER A   3      45.612  24.112  14.219  0.00  0.00    -0.295 N 
ATOM     28  H   SER A   3      45.192  23.175  14.054  0.00  0.00    +0.150 HD
ATOM     29  C   THR A   2      45.327  25.098  13.370  0.00  0.00    +0.243 C 
ATOM     30  O   THR A   2      45.846  26.196  13.441  0.00  0.00    -0.273 OA
BRANCH  29  31
ATOM     31  CA  THR A   2      44.243  24.785  12.326  0.00  0.00    +0.176 C 
BRANCH  31  32
ATOM     32  N   THR A   2      43.144  25.693  12.462  0.00  0.00    -0.295 N 
ATOM     33  C   ILE A   1      42.495  25.871  13.607  0.00  0.00    +0.238 C 
ATOM     34  O   ILE A   1      42.757  25.245  14.641  0.00  0.00    -0.274 OA
ATOM     35  H   THR A   2      42.841  26.236  11.629  0.00  0.00    +0.150 HD
BRANCH  33  36
ATOM     36  CA  ILE A   1      41.364  26.906  13.577  0.00  0.00    +0.145 C 
BRANCH  36  37
ATOM     37  CB  ILE A   1      41.769  28.056  14.514  0.00  0.00    +0.025 C 
ATOM     38  CG2 ILE A   1      43.047  28.712  14.032  0.00  0.00    +0.002 C 
BRANCH  37  39
ATOM     39  CG1 ILE A   1      40.650  29.087  14.624  0.00  0.00    +0.002 C 
ATOM     40  CD1 ILE A   1      40.788  29.936  15.877  0.00  0.00    +0.000 C 
ENDBRANCH  37  39
ENDBRANCH  36  37
BRANCH  36  41
ATOM     41  N   ILE A   1      40.119  26.277  14.027  0.00  0.00    -0.238 NA
ATOM     42  H   ILE A   1      40.091  25.906  14.998  0.00  0.00    +0.142 HD
ENDBRANCH  36  41
ENDBRANCH  33  36
ENDBRANCH  31  32
BRANCH  31  43
ATOM     43  CB  THR A   2      44.764  24.844  10.870  0.00  0.00    +0.137 C 
ATOM     44  CG2 THR A   2      45.840  23.786  10.593  0.00  0.00    +0.034 C 
BRANCH  43  45
ATOM     45  OG1 THR A   2      43.664  24.642   9.984  0.00  0.00    -0.382 OA
ATOM     46  HG1 THR A   2      43.985  24.678   9.048  0.00  0.00    +0.210 HD
ENDBRANCH  43  45
ENDBRANCH  31  43
ENDBRANCH  29  31
ENDBRANCH  26  27
BRANCH  26  47
ATOM     47  CB  SER A   3      45.703  24.093  16.666  0.00  0.00    +0.166 C 
BRANCH  47  48
ATOM     48  OG  SER A   3      46.506  24.396  17.806  0.00  0.00    -0.380 OA
ATOM     49  H   SER A   3      46.804  25.339  17.757  0.00  0.00    +0.211 HD
ENDBRANCH  47  48
ENDBRANCH  26  47
ENDBRANCH  24  26
ENDBRANCH  21  22
BRANCH  21  50
ATOM     50  CB  TRP A   4      49.399  21.180  16.734  0.00  0.00    +0.057 C 
BRANCH  50  51
ATOM     51  CG  TRP A   4      48.549  20.697  17.913  0.00  0.00    -0.002 A 
ATOM     52  CD1 TRP A   4      47.624  21.408  18.576  0.00  0.00    +0.068 A 
ATOM     53  NE1 TRP A   4      47.054  20.660  19.559  0.00  0.00    -0.352 N 
ATOM     54  HE1 TRP A   4      46.337  20.997  20.233  0.00  0.00    +0.166 HD
ATOM     55  CE2 TRP A   4      47.569  19.401  19.522  0.00  0.00    +0.056 A 
ATOM     56  CZ2 TRP A   4      47.292  18.301  20.312  0.00  0.00    +0.017 A 
ATOM     57  CH2 TRP A   4      47.989  17.144  20.065  0.00  0.00    +0.001 A 
ATOM     58  CZ3 TRP A   4      48.957  17.082  19.064  0.00  0.00    +0.000 A 
ATOM     59  CE3 TRP A   4      49.233  18.201  18.250  0.00  0.00    +0.001 A 
ATOM     60  CD2 TRP A   4      48.528  19.382  18.492  0.00  0.00    +0.013 A 
ENDBRANCH  50  51
ENDBRANCH  21  50
ENDBRANCH  18  21
ENDBRANCH  16  17
ENDBRANCH  14  16
ENDBRANCH  11  12
BRANCH  11  61
ATOM     61  CB  GLU A   6      51.886  13.571  15.958  0.00  0.00    +0.041 C 
BRANCH  61  62
ATOM     62  CG  GLU A   6      53.189  12.794  15.992  0.00  0.00    +0.116 C 
BRANCH  62  63
ATOM     63  CD  GLU A   6      54.407  13.671  16.180  0.00  0.00    +0.365 C 
ATOM     64  OE2 GLU A   6      54.458  14.419  17.165  0.00  0.00    -0.246 OA
ATOM     65  OE1 GLU A   6      55.340  13.633  15.359  0.00  0.00    -0.246 OA
ENDBRANCH  62  63
ENDBRANCH  61  62
ENDBRANCH  11  61
ENDBRANCH   8  11
ENDBRANCH   6   7
ENDBRANCH   3   6
ENDBRANCH   1   2
BRANCH   1  66
ATOM     66  C   CYS A   8      50.425  14.227   7.853  0.00  0.00    +0.242 C 
ATOM     67  N   ALA A   9      49.118  14.098   8.034  0.00  0.00    -0.297 N 
ATOM     68  H   ALA A   9      48.647  14.748   8.695  0.00  0.00    +0.150 HD
ATOM     69  O   CYS A   8      51.075  13.478   7.171  0.00  0.00    -0.273 OA
BRANCH  67  70
ATOM     70  CA  ALA A   9      48.294  13.084   7.350  0.00  0.00    +0.149 C 
ATOM     71  CB  ALA A   9      48.426  13.230   5.847  0.00  0.00    +0.031 C 
BRANCH  70  72
ATOM     72  C   ALA A   9      48.535  11.621   7.748  0.00  0.00    +0.241 C 
ATOM     73  N   GLN A  10      49.147  11.388   8.899  0.00  0.00    -0.298 N 
ATOM     74  H   GLN A  10      49.350  12.169   9.555  0.00  0.00    +0.150 HD
ATOM     75  O   ALA A   9      48.153  10.707   7.011  0.00  0.00    -0.273 OA
BRANCH  73  76
ATOM     76  CA  GLN A  10      49.532  10.024   9.234  0.00  0.00    +0.137 C 
BRANCH  76  77
ATOM     77  C   GLN A  10      48.297   9.268   9.553  0.00  0.00    +0.227 C 
ATOM     78  O   GLN A  10      47.295   9.878   9.897  0.00  0.00    -0.286 OA
ENDBRANCH  76  77
BRANCH  76  79
ATOM     79  CB  GLN A  10      50.464  10.011  10.427  0.00  0.00    +0.037 C 
BRANCH  79  80
ATOM     80  CG  GLN A  10      51.716  10.802  10.154  0.00  0.00    +0.087 C 
BRANCH  80  81
ATOM     81  CD  GLN A  10      52.855  10.334  10.989  0.00  0.00    +0.219 C 
ATOM     82  NE2 GLN A  10      53.071  10.964  12.132  0.00  0.00    -0.329 N 
ATOM     83 HE21 GLN A  10      53.852  10.666  12.750  0.00  0.00    +0.145 HD
ATOM     84 HE22 GLN A  10      52.459  11.757  12.412  0.00  0.00    +0.145 HD
ATOM     85  OE1 GLN A  10      53.527   9.415  10.616  0.00  0.00    -0.275 OA
ENDBRANCH  80  81
ENDBRANCH  79  80
ENDBRANCH  76  79
ENDBRANCH  73  76
ENDBRANCH  70  72
ENDBRANCH  67  70
ENDBRANCH   1  66
BRANCH   1  86
ATOM     86  CB  CYS A   8      51.488  16.430   7.483  0.00  0.00    +0.098 C 
BRANCH  86  87
ATOM     87  SG  CYS A   8      52.283  17.880   8.189  0.00  0.00    -0.080 S 
BRANCH  87  88
ATOM     88  SG  SER A   3      52.713  19.005   6.558  0.00  0.00    -0.080 S 
BRANCH  88  89
ATOM     89  CB  SER A   3      51.101  19.747   6.177  0.00  0.00    +0.098 C 
BRANCH  89  90
ATOM     90  CA  SER A   3      50.471  20.468   7.350  0.00  0.00    +0.160 C 
BRANCH  90  91
ATOM     91  C   SER A   3      51.083  21.840   7.554  0.00  0.00    +0.242 C 
ATOM     92  O   SER A   3      50.352  22.799   7.679  0.00  0.00    -0.273 OA
ATOM     93  N   TRP A   4      52.409  21.915   7.614  0.00  0.00    -0.297 N 
ATOM     94  H   TRP A   4      52.971  21.061   7.424  0.00  0.00    +0.150 HD
BRANCH  93  95
ATOM     95  CA  TRP A   4      53.096  23.151   7.936  0.00  0.00    +0.149 C 
BRANCH  95  96
ATOM     96  C   TRP A   4      52.748  24.250   6.954  0.00  0.00    +0.241 C 
ATOM     97  N   GLY A   5      52.322  25.398   7.495  0.00  0.00    -0.295 N 
ATOM     98  H   GLY A   5      52.234  25.460   8.529  0.00  0.00    +0.150 HD
ATOM     99  O   TRP A   4      52.889  24.070   5.738  0.00  0.00    -0.273 OA
BRANCH  97 100
ATOM    100  CA  GLY A   5      51.977  26.563   6.694  0.00  0.00    +0.176 C 
BRANCH 100 101
ATOM    101  C   GLY A   5      50.490  26.791   6.725  0.00  0.00    +0.243 C 
ATOM    102  N   GLU A   6      49.747  25.748   7.078  0.00  0.00    -0.296 N 
ATOM    103  H   GLU A   6      50.213  24.849   7.316  0.00  0.00    +0.150 HD
ATOM    104  O   GLY A   5      50.017  27.896   6.462  0.00  0.00    -0.273 OA
BRANCH 102 105
ATOM    105  CA  GLU A   6      48.302  25.833   7.139  0.00  0.00    +0.160 C 
BRANCH 105 106
ATOM    106  C   GLU A   6      47.742  26.396   8.419  0.00  0.00    +0.241 C 
ATOM    107  N   GLY A   7      48.537  26.404   9.496  0.00  0.00    -0.295 N 
ATOM    108  H   GLY A   7      49.541  26.153   9.397  0.00  0.00    +0.150 HD
ATOM    109  O   GLU A   6      46.576  26.831   8.434  0.00  0.00    -0.273 OA
BRANCH 107 110
ATOM    110  CA  GLY A   7      48.001  26.765  10.820  0.00  0.00    +0.178 C 
BRANCH 110 111
ATOM    111  C   GLY A   7      47.489  28.198  10.874  0.00  0.00    +0.243 C 
ATOM    112  N   CYS A   8      46.558  28.458  11.800  0.00  0.00    -0.295 N 
ATOM    113  H   CYS A   8      46.365  27.746  12.533  0.00  0.00    +0.150 HD
ATOM    114  O   GLY A   7      47.928  29.051  10.096  0.00  0.00    -0.273 OA
BRANCH 112 115
ATOM    115  CA  CYS A   8      45.804  29.708  11.816  0.00  0.00    +0.176 C 
BRANCH 115 116
ATOM    116  C   CYS A   8      44.658  29.808  10.808  0.00  0.00    +0.243 C 
ATOM    117  O   CYS A   8      43.754  30.605  10.989  0.00  0.00    -0.273 OA
ATOM    118  N   ALA A   9      44.717  29.034   9.730  0.00  0.00    -0.296 N 
ATOM    119  H   ALA A   9      45.567  28.455   9.576  0.00  0.00    +0.150 HD
BRANCH 118 120
ATOM    120  CA  ALA A   9      43.652  28.966   8.768  0.00  0.00    +0.163 C 
BRANCH 120 121
ATOM    121  C   ALA A   9      42.394  28.320   9.324  0.00  0.00    +0.229 C 
ATOM    122  O   ALA A   9      42.399  27.807  10.432  0.00  0.00    -0.286 OA
ENDBRANCH 120 121
ENDBRANCH 118 120
ENDBRANCH 115 116
ENDBRANCH 112 115
ENDBRANCH 110 111
BRANCH 110 123
ATOM    123  CB  GLY A   7      49.052  26.569  11.890  0.00  0.00    +0.166 C 
BRANCH 123 124
ATOM    124  O   GLY A   7      50.185  27.397  11.646  0.00  0.00    -0.380 OA
ATOM    125  H   GLY A   7      50.578  27.166  10.767  0.00  0.00    +0.211 HD
ENDBRANCH 123 124
ENDBRANCH 110 123
ENDBRANCH 107 110
ENDBRANCH 105 106
BRANCH 105 126
ATOM    126  CB  GLU A   6      47.701  24.457   6.890  0.00  0.00    +0.143 C 
BRANCH 126 127
ATOM    127  CG  GLU A   6      48.029  23.953   5.506  0.00  0.00    +0.367 C 
ATOM    128  OD2 GLU A   6      48.382  22.786   5.356  0.00  0.00    -0.246 OA
ATOM    129  OD1 GLU A   6      47.982  24.754   4.565  0.00  0.00    -0.246 OA
ENDBRANCH 126 127
ENDBRANCH 105 126
ENDBRANCH 102 105
ENDBRANCH 100 101
ENDBRANCH  97 100
ENDBRANCH  95  96
BRANCH  95 130
ATOM    130  CB  TRP A   4      54.597  22.947   7.902  0.00  0.00    +0.029 C 
BRANCH 130 131
ATOM    131  CG  TRP A   4      55.209  22.382   9.159  0.00  0.00    +0.000 C 
BRANCH 131 132
ATOM    132  CD  TRP A   4      56.372  21.479   8.770  0.00  0.00    -0.024 C 
BRANCH 132 133
ATOM    133  CE  TRP A   4      57.566  21.643   9.675  0.00  0.00    -0.086 C 
BRANCH 133 134
ATOM    134  NZ  TRP A   4      58.537  22.637   9.105  0.00  0.00    +0.380 N 
ATOM    135  HZ1 TRP A   4      59.350  22.732   9.746  0.00  0.00    -0.089 HD
ATOM    136  HZ2 TRP A   4      58.067  23.559   9.000  0.00  0.00    -0.089 HD
ATOM    137  HZ3 TRP A   4      58.864  22.306   8.175  0.00  0.00    -0.089 HD
ENDBRANCH 133 134
ENDBRANCH 132 133
ENDBRANCH 131 132
ENDBRANCH 130 131
ENDBRANCH  95 130
ENDBRANCH  93  95
ENDBRANCH  90  91
BRANCH  90 140
ATOM    138  C   THR A   2      48.150  19.769   7.417  0.00  0.00    +0.241 C 
ATOM    139  O   THR A   2      48.447  18.661   7.852  0.00  0.00    -0.273 OA
ATOM    140  N   SER A   3      49.051  20.690   7.147  0.00  0.00    -0.296 N 
ATOM    141  H   SER A   3      48.734  21.608   6.775  0.00  0.00    +0.150 HD
BRANCH 138 142
ATOM    142  CA  THR A   2      46.707  20.171   7.185  0.00  0.00    +0.149 C 
ATOM    143  CB  THR A   2      46.245  21.077   8.320  0.00  0.00    +0.031 C 
BRANCH 142 145
ATOM    144  C   ILE A   1      45.892  18.106   6.174  0.00  0.00    +0.239 C 
ATOM    145  N   THR A   2      45.909  18.965   7.182  0.00  0.00    -0.297 N 
ATOM    146  H   THR A   2      45.318  18.762   8.014  0.00  0.00    +0.150 HD
ATOM    147  O   ILE A   1      46.260  18.390   5.021  0.00  0.00    -0.274 OA
BRANCH 144 148
ATOM    148  CA  ILE A   1      45.365  16.713   6.517  0.00  0.00    +0.156 C 
BRANCH 148 149
ATOM    149  N   ILE A   1      45.125  15.991   5.274  0.00  0.00    -0.238 NA
ATOM    150  H   ILE A   1      45.458  16.404   4.380  0.00  0.00    +0.142 HD
ENDBRANCH 148 149
BRANCH 148 151
ATOM    151  CB  ILE A   1      46.415  15.939   7.346  0.00  0.00    +0.140 C 
BRANCH 151 152
ATOM    152  CG  ILE A   1      46.458  16.329   8.845  0.00  0.00    +0.367 C 
ATOM    153  OD2 ILE A   1      47.376  15.793   9.532  0.00  0.00    -0.246 OA
ATOM    154  OD1 ILE A   1      45.611  17.138   9.339  0.00  0.00    -0.246 OA
ENDBRANCH 151 152
ENDBRANCH 148 151
ENDBRANCH 144 148
ENDBRANCH 142 145
ENDBRANCH 138 142
ENDBRANCH  90 140
ENDBRANCH  89  90
ENDBRANCH  88  89
ENDBRANCH  87  88
ENDBRANCH  86  87
ENDBRANCH   1  86
TORSDOF 68
REMARK  Name = ../refined-set-2016/4crf/4crf_pocket.pdb
REMARK  239 active torsions:
REMARK  status: ('A' for Active; 'I' for Inactive)
REMARK    1  A    between atoms: _1  and  _5
REMARK    2  A    between atoms: _5  and  _6
REMARK    3  A    between atoms: _5  and  _8
REMARK    4  A    between atoms: _8  and  _9
REMARK    5  A    between atoms: _12  and  _14
REMARK    6  A    between atoms: _14  and  _15
REMARK    7  A    between atoms: _14  and  _17
REMARK    8  A    between atoms: _20  and  _22
REMARK    9  A    between atoms: _22  and  _23
REMARK   10  A    between atoms: _22  and  _25
REMARK   11  A    between atoms: _25  and  _26
REMARK   12  A    between atoms: _29  and  _31
REMARK   13  A    between atoms: _31  and  _32
REMARK   14  A    between atoms: _31  and  _34
REMARK   15  A    between atoms: _34  and  _35
REMARK   16  A    between atoms: _38  and  _40
REMARK   17  A    between atoms: _40  and  _41
REMARK   18  A    between atoms: _40  and  _43
REMARK   19  A    between atoms: _43  and  _44
REMARK   20  A    between atoms: _47  and  _49
REMARK   21  A    between atoms: _49  and  _50
REMARK   22  A    between atoms: _49  and  _52
REMARK   23  A    between atoms: _52  and  _53
REMARK   24  A    between atoms: _56  and  _58
REMARK   25  A    between atoms: _58  and  _59
REMARK   26  A    between atoms: _58  and  _61
REMARK   27  A    between atoms: _61  and  _62
REMARK   28  A    between atoms: _62  and  _63
REMARK   29  A    between atoms: _68  and  _70
REMARK   30  A    between atoms: _70  and  _71
REMARK   31  A    between atoms: _70  and  _73
REMARK   32  A    between atoms: _73  and  _74
REMARK   33  A    between atoms: _74  and  _75
REMARK   34  A    between atoms: _75  and  _76
REMARK   35  A    between atoms: _85  and  _87
REMARK   36  A    between atoms: _87  and  _88
REMARK   37  A    between atoms: _87  and  _90
REMARK   38  A    between atoms: _90  and  _91
REMARK   39  A    between atoms: _96  and  _98
REMARK   40  A    between atoms: _98  and  _99
REMARK   41  A    between atoms: _98  and  _101
REMARK   42  A    between atoms: _101  and  _102
REMARK   43  A    between atoms: _105  and  _107
REMARK   44  A    between atoms: _107  and  _108
REMARK   45  A    between atoms: _107  and  _110
REMARK   46  A    between atoms: _110  and  _111
REMARK   47  A    between atoms: _111  and  _146
REMARK   48  A    between atoms: _112  and  _114
REMARK   49  A    between atoms: _114  and  _115
REMARK   50  A    between atoms: _117  and  _119
REMARK   51  A    between atoms: _119  and  _120
REMARK   52  A    between atoms: _123  and  _125
REMARK   53  A    between atoms: _125  and  _126
REMARK   54  A    between atoms: _129  and  _131
REMARK   55  A    between atoms: _131  and  _132
REMARK   56  A    between atoms: _131  and  _134
REMARK   57  A    between atoms: _134  and  _135
REMARK   58  A    between atoms: _140  and  _142
REMARK   59  A    between atoms: _142  and  _143
REMARK   60  A    between atoms: _142  and  _145
REMARK   61  A    between atoms: _145  and  _146
REMARK   62  A    between atoms: _147  and  _149
REMARK   63  A    between atoms: _149  and  _150
REMARK   64  A    between atoms: _149  and  _152
REMARK   65  A    between atoms: _152  and  _153
REMARK   66  A    between atoms: _159  and  _161
REMARK   67  A    between atoms: _161  and  _162
REMARK   68  A    between atoms: _161  and  _164
REMARK   69  A    between atoms: _164  and  _165
REMARK   70  A    between atoms: _170  and  _171
REMARK   71  A    between atoms: _173  and  _175
REMARK   72  A    between atoms: _175  and  _176
REMARK   73  A    between atoms: _178  and  _180
REMARK   74  A    between atoms: _180  and  _181
REMARK   75  A    between atoms: _180  and  _183
REMARK   76  A    between atoms: _186  and  _188
REMARK   77  A    between atoms: _188  and  _189
REMARK   78  A    between atoms: _192  and  _194
REMARK   79  A    between atoms: _194  and  _195
REMARK   80  A    between atoms: _194  and  _197
REMARK   81  A    between atoms: _197  and  _198
REMARK   82  A    between atoms: _201  and  _203
REMARK   83  A    between atoms: _203  and  _204
REMARK   84  A    between atoms: _203  and  _206
REMARK   85  A    between atoms: _209  and  _211
REMARK   86  A    between atoms: _211  and  _212
REMARK   87  A    between atoms: _211  and  _214
REMARK   88  A    between atoms: _214  and  _215
REMARK   89  A    between atoms: _225  and  _227
REMARK   90  A    between atoms: _227  and  _228
REMARK   91  A    between atoms: _230  and  _232
REMARK   92  A    between atoms: _232  and  _233
REMARK   93  A    between atoms: _232  and  _235
REMARK   94  A    between atoms: _235  and  _236
REMARK   95  A    between atoms: _241  and  _242
REMARK   96  A    between atoms: _244  and  _246
REMARK   97  A    between atoms: _246  and  _247
REMARK   98  A    between atoms: _246  and  _249
REMARK   99  A    between atoms: _249  and  _250
REMARK  100  A    between atoms: _250  and  _251
REMARK  101  A    between atoms: _251  and  _252
REMARK  102  A    between atoms: _252  and  _253
REMARK  103  A    between atoms: _257  and  _259
REMARK  104  A    between atoms: _259  and  _260
REMARK  105  A    between atoms: _259  and  _262
REMARK  106  A    between atoms: _262  and  _263
REMARK  107  A    between atoms: _266  and  _268
REMARK  108  A    between atoms: _268  and  _269
REMARK  109  A    between atoms: _268  and  _271
REMARK  110  A    between atoms: _271  and  _272
REMARK  111  A    between atoms: _272  and  _273
REMARK  112  A    between atoms: _273  and  _274
REMARK  113  A    between atoms: _283  and  _285
REMARK  114  A    between atoms: _285  and  _286
REMARK  115  A    between atoms: _285  and  _288
REMARK  116  A    between atoms: _288  and  _289
REMARK  117  A    between atoms: _292  and  _294
REMARK  118  A    between atoms: _294  and  _295
REMARK  119  A    between atoms: _294  and  _297
REMARK  120  A    between atoms: _297  and  _298
REMARK  121  A    between atoms: _298  and  _299
REMARK  122  A    between atoms: _299  and  _300
REMARK  123  A    between atoms: _300  and  _301
REMARK  124  A    between atoms: _305  and  _307
REMARK  125  A    between atoms: _307  and  _308
REMARK  126  A    between atoms: _307  and  _310
REMARK  127  A    between atoms: _310  and  _311
REMARK  128  A    between atoms: _314  and  _316
REMARK  129  A    between atoms: _316  and  _317
REMARK  130  A    between atoms: _316  and  _319
REMARK  131  A    between atoms: _319  and  _320
REMARK  132  A    between atoms: _320  and  _321
REMARK  133  A    between atoms: _326  and  _328
REMARK  134  A    between atoms: _328  and  _329
REMARK  135  A    between atoms: _328  and  _331
REMARK  136  A    between atoms: _331  and  _332
REMARK  137  A    between atoms: _335  and  _337
REMARK  138  A    between atoms: _337  and  _338
REMARK  139  A    between atoms: _337  and  _340
REMARK  140  A    between atoms: _340  and  _341
REMARK  141  A    between atoms: _346  and  _347
REMARK  142  A    between atoms: _349  and  _351
REMARK  143  A    between atoms: _351  and  _352
REMARK  144  A    between atoms: _351  and  _354
REMARK  145  A    between atoms: _354  and  _355
REMARK  146  A    between atoms: _358  and  _360
REMARK  147  A    between atoms: _360  and  _361
REMARK  148  A    between atoms: _360  and  _363
REMARK  149  A    between atoms: _365  and  _367
REMARK  150  A    between atoms: _367  and  _368
REMARK  151  A    between atoms: _371  and  _373
REMARK  152  A    between atoms: _373  and  _374
REMARK  153  A    between atoms: _373  and  _376
REMARK  154  A    between atoms: _376  and  _377
REMARK  155  A    between atoms: _380  and  _382
REMARK  156  A    between atoms: _382  and  _383
REMARK  157  A    between atoms: _386  and  _388
REMARK  158  A    between atoms: _388  and  _389
REMARK  159  A    between atoms: _388  and  _391
REMARK  160  A    between atoms: _391  and  _392
REMARK  161  A    between atoms: _392  and  _506
REMARK  162  A    between atoms: _393  and  _395
REMARK  163  A    between atoms: _395  and  _396
REMARK  164  A    between atoms: _395  and  _398
REMARK  165  A    between atoms: _398  and  _399
REMARK  166  A    between atoms: _399  and  _400
REMARK  167  A    between atoms: _400  and  _401
REMARK  168  A    between atoms: _401  and  _402
REMARK  169  A    between atoms: _406  and  _408
REMARK  170  A    between atoms: _408  and  _409
REMARK  171  A    between atoms: _411  and  _413
REMARK  172  A    between atoms: _413  and  _414
REMARK  173  A    between atoms: _413  and  _416
REMARK  174  A    between atoms: _416  and  _417
REMARK  175  A    between atoms: _420  and  _422
REMARK  176  A    between atoms: _422  and  _423
REMARK  177  A    between atoms: _422  and  _425
REMARK  178  A    between atoms: _425  and  _426
REMARK  179  A    between atoms: _428  and  _430
REMARK  180  A    between atoms: _430  and  _431
REMARK  181  A    between atoms: _433  and  _435
REMARK  182  A    between atoms: _435  and  _436
REMARK  183  A    between atoms: _438  and  _440
REMARK  184  A    between atoms: _440  and  _441
REMARK  185  A    between atoms: _440  and  _443
REMARK  186  A    between atoms: _443  and  _444
REMARK  187  A    between atoms: _447  and  _449
REMARK  188  A    between atoms: _449  and  _450
REMARK  189  A    between atoms: _449  and  _452
REMARK  190  A    between atoms: _452  and  _453
REMARK  191  A    between atoms: _456  and  _458
REMARK  192  A    between atoms: _458  and  _459
REMARK  193  A    between atoms: _458  and  _461
REMARK  194  A    between atoms: _461  and  _462
REMARK  195  A    between atoms: _464  and  _466
REMARK  196  A    between atoms: _466  and  _467
REMARK  197  A    between atoms: _466  and  _469
REMARK  198  A    between atoms: _469  and  _470
REMARK  199  A    between atoms: _480  and  _482
REMARK  200  A    between atoms: _482  and  _483
REMARK  201  A    between atoms: _485  and  _487
REMARK  202  A    between atoms: _487  and  _488
REMARK  203  A    between atoms: _487  and  _490
REMARK  204  A    between atoms: _490  and  _491
REMARK  205  A    between atoms: _491  and  _492
REMARK  206  A    between atoms: _495  and  _497
REMARK  207  A    between atoms: _497  and  _498
REMARK  208  A    between atoms: _500  and  _502
REMARK  209  A    between atoms: _502  and  _503
REMARK  210  A    between atoms: _502  and  _505
REMARK  211  A    between atoms: _505  and  _506
REMARK  212  A    between atoms: _507  and  _509
REMARK  213  A    between atoms: _509  and  _510
REMARK  214  A    between atoms: _513  and  _515
REMARK  215  A    between atoms: _515  and  _516
REMARK  216  A    between atoms: _515  and  _518
REMARK  217  A    between atoms: _518  and  _519
REMARK  218  A    between atoms: _519  and  _520
REMARK  219  A    between atoms: _525  and  _527
REMARK  220  A    between atoms: _527  and  _528
REMARK  221  A    between atoms: _527  and  _530
REMARK  222  A    between atoms: _530  and  _531
REMARK  223  A    between atoms: _531  and  _532
REMARK  224  A    between atoms: _532  and  _533
REMARK  225  A    between atoms: _543  and  _544
REMARK  226  A    between atoms: _549  and  _551
REMARK  227  A    between atoms: _551  and  _552
REMARK  228  A    between atoms: _554  and  _556
REMARK  229  A    between atoms: _556  and  _557
REMARK  230  A    between atoms: _556  and  _559
REMARK  231  A    between atoms: _562  and  _564
REMARK  232  A    between atoms: _564  and  _565
REMARK  233  A    between atoms: _564  and  _567
REMARK  234  A    between atoms: _567  and  _568
REMARK  235  A    between atoms: _573  and  _574
REMARK  236  A    between atoms: _576  and  _578
REMARK  237  A    between atoms: _578  and  _579
REMARK  238  A    between atoms: _578  and  _581
REMARK  239  A    between atoms: _581  and  _582
REMARK                            x       y       z     vdW  Elec       q    Type
REMARK                         _______ _______ _______ _____ _____    ______ ____
ROOT
ATOM      1  C   GLY A   3      43.792  17.648  14.140  0.00  0.00    +0.243 C 
ATOM      2  N   VAL A   4      44.440  18.546  14.861  0.00  0.00    -0.297 N 
ATOM      3  H   VAL A   4      45.407  18.821  14.595  0.00  0.00    +0.150 HD
ATOM      4  O   GLY A   3      42.650  17.253  14.412  0.00  0.00    -0.273 OA
ENDROOT
BRANCH   2   5
ATOM      5  CA  VAL A   4      43.820  19.144  16.006  0.00  0.00    +0.149 C 
BRANCH   5   6
ATOM      6  C   VAL A   4      43.608  20.626  15.700  0.00  0.00    +0.241 C 
ATOM      7  N   TYR A   5      42.381  21.070  15.986  0.00  0.00    -0.297 N 
ATOM      8  H   TYR A   5      41.715  20.407  16.432  0.00  0.00    +0.150 HD
ATOM      9  O   VAL A   4      44.518  21.321  15.242  0.00  0.00    -0.273 OA
BRANCH   7  10
ATOM     10  CA  TYR A   5      41.921  22.413  15.715  0.00  0.00    +0.153 C 
BRANCH  10  11
ATOM     11  C   TYR A   5      41.363  23.054  16.984  0.00  0.00    +0.241 C 
ATOM     12  O   TYR A   5      40.801  22.374  17.855  0.00  0.00    -0.273 OA
ATOM     13  N   THR A   6      41.550  24.369  17.088  0.00  0.00    -0.296 N 
ATOM     14  H   THR A   6      42.180  24.847  16.412  0.00  0.00    +0.150 HD
BRANCH  13  15
ATOM     15  CA  THR A   6      40.907  25.136  18.104  0.00  0.00    +0.164 C 
BRANCH  15  16
ATOM     16  C   THR A   6      39.408  25.032  17.858  0.00  0.00    +0.229 C 
ATOM     17  O   THR A   6      38.952  25.240  16.737  0.00  0.00    -0.286 OA
ENDBRANCH  15  16
BRANCH  15  18
ATOM     18  CB  THR A   6      41.362  26.602  18.053  0.00  0.00    +0.136 C 
ATOM     19  CG2 THR A   6      40.841  27.395  19.261  0.00  0.00    +0.034 C 
BRANCH  18  20
ATOM     20  OG1 THR A   6      42.793  26.639  18.064  0.00  0.00    -0.382 OA
ATOM     21  HG1 THR A   6      43.098  27.580  18.031  0.00  0.00    +0.210 HD
ENDBRANCH  18  20
ENDBRANCH  15  18
ENDBRANCH  13  15
ENDBRANCH  10  11
BRANCH  10  22
ATOM     22  CB  TYR A   5      40.830  22.382  14.650  0.00  0.00    +0.055 C 
BRANCH  22  23
ATOM     23  CG  TYR A   5      41.266  21.734  13.358  0.00  0.00    -0.020 A 
ATOM     24  CD2 TYR A   5      41.383  20.338  13.238  0.00  0.00    -0.001 A 
ATOM     25  CE2 TYR A   5      41.795  19.750  12.040  0.00  0.00    +0.036 A 
ATOM     26  CZ  TYR A   5      42.087  20.555  10.947  0.00  0.00    +0.134 A 
ATOM     27  CE1 TYR A   5      41.958  21.923  11.052  0.00  0.00    +0.036 A 
ATOM     28  CD1 TYR A   5      41.553  22.500  12.253  0.00  0.00    -0.001 A 
BRANCH  26  29
ATOM     29  OH  TYR A   5      42.509  20.025   9.759  0.00  0.00    -0.506 OA
ATOM     30  HH  TYR A   5      42.553  19.039   9.836  0.00  0.00    +0.292 HD
ENDBRANCH  26  29
ENDBRANCH  22  23
ENDBRANCH  10  22
ENDBRANCH   7  10
ENDBRANCH   5   6
BRANCH   5  31
ATOM     31  CB  VAL A   4      44.648  18.945  17.316  0.00  0.00    +0.027 C 
ATOM     32  CG2 VAL A   4      43.821  19.363  18.517  0.00  0.00    +0.002 C 
ATOM     33  CG1 VAL A   4      45.083  17.505  17.491  0.00  0.00    +0.002 C 
ENDBRANCH   5  31
ENDBRANCH   2   5
BRANCH   1  34
ATOM     34  CA  GLY A   3      44.521  17.102  12.955  0.00  0.00    +0.176 C 
BRANCH  34  37
ATOM     35  C   PRO A   2      44.429  14.763  13.592  0.00  0.00    +0.241 C 
ATOM     36  O   PRO A   2      45.208  14.945  14.543  0.00  0.00    -0.273 OA
ATOM     37  N   GLY A   3      44.076  15.727  12.750  0.00  0.00    -0.295 N 
ATOM     38  H   GLY A   3      43.474  15.499  11.933  0.00  0.00    +0.150 HD
BRANCH  35  44
ATOM     39  C   ARG A   1      45.868  12.049  13.202  0.00  0.00    +0.241 C 
ATOM     40  N   PRO A   2      44.663  12.272  13.748  0.00  0.00    -0.272 N 
ATOM     41  CD  PRO A   2      44.040  11.475  14.816  0.00  0.00    +0.094 C 
ATOM     42  CG  PRO A   2      42.600  11.835  14.714  0.00  0.00    +0.024 C 
ATOM     43  CB  PRO A   2      42.607  13.256  14.301  0.00  0.00    +0.031 C 
ATOM     44  CA  PRO A   2      43.796  13.389  13.353  0.00  0.00    +0.152 C 
ATOM     45  O   ARG A   1      46.268  12.661  12.205  0.00  0.00    -0.273 OA
BRANCH  39  46
ATOM     46  CA  ARG A   1      46.728  10.939  13.823  0.00  0.00    +0.145 C 
BRANCH  46  47
ATOM     47  N   ARG A   1      46.278   9.667  13.285  0.00  0.00    -0.238 NA
ATOM     48  H   ARG A   1      46.081   9.607  12.266  0.00  0.00    +0.142 HD
ENDBRANCH  46  47
BRANCH  46  49
ATOM     49  CB  ARG A   1      48.192  11.142  13.471  0.00  0.00    +0.030 C 
BRANCH  49  50
ATOM     50  CG  ARG A   1      49.111  10.145  14.128  0.00  0.00    +0.045 C 
BRANCH  50  51
ATOM     51  CD  ARG A   1      49.115  10.288  15.640  0.00  0.00    +0.174 C 
BRANCH  51  52
ATOM     52  NE  ARG A   1      50.345   9.769  16.206  0.00  0.00    -0.265 N 
ATOM     53  CZ  ARG A   1      50.739   9.970  17.458  0.00  0.00    +0.342 C 
ATOM     54  NH2 ARG A   1      49.977  10.671  18.289  0.00  0.00    -0.292 N 
ATOM     55 HH21 ARG A   1      50.285  10.829  19.270  0.00  0.00    +0.255 HD
ATOM     56 HH22 ARG A   1      49.072  11.063  17.959  0.00  0.00    +0.255 HD
ATOM     57  NH1 ARG A   1      51.900   9.471  17.878  0.00  0.00    -0.292 N 
ATOM     58 HH11 ARG A   1      52.209   9.628  18.858  0.00  0.00    +0.255 HD
ATOM     59 HH12 ARG A   1      52.497   8.924  17.226  0.00  0.00    +0.255 HD
ATOM     60  HE  ARG A   1      50.960   9.201  15.590  0.00  0.00    +0.259 HD
ENDBRANCH  51  52
ENDBRANCH  50  51
ENDBRANCH  49  50
ENDBRANCH  46  49
ENDBRANCH  39  46
ENDBRANCH  35  44
ENDBRANCH  34  37
ENDBRANCH   1  34
TORSDOF 21
REMARK  Name = ../refined-set-2016/4crf/4crf_pocket.pdb
REMARK  239 active torsions:
REMARK  status: ('A' for Active; 'I' for Inactive)
REMARK    1  A    between atoms: _1  and  _5
REMARK    2  A    between atoms: _5  and  _6
REMARK    3  A    between atoms: _5  and  _8
REMARK    4  A    between atoms: _8  and  _9
REMARK    5  A    between atoms: _12  and  _14
REMARK    6  A    between atoms: _14  and  _15
REMARK    7  A    between atoms: _14  and  _17
REMARK    8  A    between atoms: _20  and  _22
REMARK    9  A    between atoms: _22  and  _23
REMARK   10  A    between atoms: _22  and  _25
REMARK   11  A    between atoms: _25  and  _26
REMARK   12  A    between atoms: _29  and  _31
REMARK   13  A    between atoms: _31  and  _32
REMARK   14  A    between atoms: _31  and  _34
REMARK   15  A    between atoms: _34  and  _35
REMARK   16  A    between atoms: _38  and  _40
REMARK   17  A    between atoms: _40  and  _41
REMARK   18  A    between atoms: _40  and  _43
REMARK   19  A    between atoms: _43  and  _44
REMARK   20  A    between atoms: _47  and  _49
REMARK   21  A    between atoms: _49  and  _50
REMARK   22  A    between atoms: _49  and  _52
REMARK   23  A    between atoms: _52  and  _53
REMARK   24  A    between atoms: _56  and  _58
REMARK   25  A    between atoms: _58  and  _59
REMARK   26  A    between atoms: _58  and  _61
REMARK   27  A    between atoms: _61  and  _62
REMARK   28  A    between atoms: _62  and  _63
REMARK   29  A    between atoms: _68  and  _70
REMARK   30  A    between atoms: _70  and  _71
REMARK   31  A    between atoms: _70  and  _73
REMARK   32  A    between atoms: _73  and  _74
REMARK   33  A    between atoms: _74  and  _75
REMARK   34  A    between atoms: _75  and  _76
REMARK   35  A    between atoms: _85  and  _87
REMARK   36  A    between atoms: _87  and  _88
REMARK   37  A    between atoms: _87  and  _90
REMARK   38  A    between atoms: _90  and  _91
REMARK   39  A    between atoms: _96  and  _98
REMARK   40  A    between atoms: _98  and  _99
REMARK   41  A    between atoms: _98  and  _101
REMARK   42  A    between atoms: _101  and  _102
REMARK   43  A    between atoms: _105  and  _107
REMARK   44  A    between atoms: _107  and  _108
REMARK   45  A    between atoms: _107  and  _110
REMARK   46  A    between atoms: _110  and  _111
REMARK   47  A    between atoms: _111  and  _146
REMARK   48  A    between atoms: _112  and  _114
REMARK   49  A    between atoms: _114  and  _115
REMARK   50  A    between atoms: _117  and  _119
REMARK   51  A    between atoms: _119  and  _120
REMARK   52  A    between atoms: _123  and  _125
REMARK   53  A    between atoms: _125  and  _126
REMARK   54  A    between atoms: _129  and  _131
REMARK   55  A    between atoms: _131  and  _132
REMARK   56  A    between atoms: _131  and  _134
REMARK   57  A    between atoms: _134  and  _135
REMARK   58  A    between atoms: _140  and  _142
REMARK   59  A    between atoms: _142  and  _143
REMARK   60  A    between atoms: _142  and  _145
REMARK   61  A    between atoms: _145  and  _146
REMARK   62  A    between atoms: _147  and  _149
REMARK   63  A    between atoms: _149  and  _150
REMARK   64  A    between atoms: _149  and  _152
REMARK   65  A    between atoms: _152  and  _153
REMARK   66  A    between atoms: _159  and  _161
REMARK   67  A    between atoms: _161  and  _162
REMARK   68  A    between atoms: _161  and  _164
REMARK   69  A    between atoms: _164  and  _165
REMARK   70  A    between atoms: _170  and  _171
REMARK   71  A    between atoms: _173  and  _175
REMARK   72  A    between atoms: _175  and  _176
REMARK   73  A    between atoms: _178  and  _180
REMARK   74  A    between atoms: _180  and  _181
REMARK   75  A    between atoms: _180  and  _183
REMARK   76  A    between atoms: _186  and  _188
REMARK   77  A    between atoms: _188  and  _189
REMARK   78  A    between atoms: _192  and  _194
REMARK   79  A    between atoms: _194  and  _195
REMARK   80  A    between atoms: _194  and  _197
REMARK   81  A    between atoms: _197  and  _198
REMARK   82  A    between atoms: _201  and  _203
REMARK   83  A    between atoms: _203  and  _204
REMARK   84  A    between atoms: _203  and  _206
REMARK   85  A    between atoms: _209  and  _211
REMARK   86  A    between atoms: _211  and  _212
REMARK   87  A    between atoms: _211  and  _214
REMARK   88  A    between atoms: _214  and  _215
REMARK   89  A    between atoms: _225  and  _227
REMARK   90  A    between atoms: _227  and  _228
REMARK   91  A    between atoms: _230  and  _232
REMARK   92  A    between atoms: _232  and  _233
REMARK   93  A    between atoms: _232  and  _235
REMARK   94  A    between atoms: _235  and  _236
REMARK   95  A    between atoms: _241  and  _242
REMARK   96  A    between atoms: _244  and  _246
REMARK   97  A    between atoms: _246  and  _247
REMARK   98  A    between atoms: _246  and  _249
REMARK   99  A    between atoms: _249  and  _250
REMARK  100  A    between atoms: _250  and  _251
REMARK  101  A    between atoms: _251  and  _252
REMARK  102  A    between atoms: _252  and  _253
REMARK  103  A    between atoms: _257  and  _259
REMARK  104  A    between atoms: _259  and  _260
REMARK  105  A    between atoms: _259  and  _262
REMARK  106  A    between atoms: _262  and  _263
REMARK  107  A    between atoms: _266  and  _268
REMARK  108  A    between atoms: _268  and  _269
REMARK  109  A    between atoms: _268  and  _271
REMARK  110  A    between atoms: _271  and  _272
REMARK  111  A    between atoms: _272  and  _273
REMARK  112  A    between atoms: _273  and  _274
REMARK  113  A    between atoms: _283  and  _285
REMARK  114  A    between atoms: _285  and  _286
REMARK  115  A    between atoms: _285  and  _288
REMARK  116  A    between atoms: _288  and  _289
REMARK  117  A    between atoms: _292  and  _294
REMARK  118  A    between atoms: _294  and  _295
REMARK  119  A    between atoms: _294  and  _297
REMARK  120  A    between atoms: _297  and  _298
REMARK  121  A    between atoms: _298  and  _299
REMARK  122  A    between atoms: _299  and  _300
REMARK  123  A    between atoms: _300  and  _301
REMARK  124  A    between atoms: _305  and  _307
REMARK  125  A    between atoms: _307  and  _308
REMARK  126  A    between atoms: _307  and  _310
REMARK  127  A    between atoms: _310  and  _311
REMARK  128  A    between atoms: _314  and  _316
REMARK  129  A    between atoms: _316  and  _317
REMARK  130  A    between atoms: _316  and  _319
REMARK  131  A    between atoms: _319  and  _320
REMARK  132  A    between atoms: _320  and  _321
REMARK  133  A    between atoms: _326  and  _328
REMARK  134  A    between atoms: _328  and  _329
REMARK  135  A    between atoms: _328  and  _331
REMARK  136  A    between atoms: _331  and  _332
REMARK  137  A    between atoms: _335  and  _337
REMARK  138  A    between atoms: _337  and  _338
REMARK  139  A    between atoms: _337  and  _340
REMARK  140  A    between atoms: _340  and  _341
REMARK  141  A    between atoms: _346  and  _347
REMARK  142  A    between atoms: _349  and  _351
REMARK  143  A    between atoms: _351  and  _352
REMARK  144  A    between atoms: _351  and  _354
REMARK  145  A    between atoms: _354  and  _355
REMARK  146  A    between atoms: _358  and  _360
REMARK  147  A    between atoms: _360  and  _361
REMARK  148  A    between atoms: _360  and  _363
REMARK  149  A    between atoms: _365  and  _367
REMARK  150  A    between atoms: _367  and  _368
REMARK  151  A    between atoms: _371  and  _373
REMARK  152  A    between atoms: _373  and  _374
REMARK  153  A    between atoms: _373  and  _376
REMARK  154  A    between atoms: _376  and  _377
REMARK  155  A    between atoms: _380  and  _382
REMARK  156  A    between atoms: _382  and  _383
REMARK  157  A    between atoms: _386  and  _388
REMARK  158  A    between atoms: _388  and  _389
REMARK  159  A    between atoms: _388  and  _391
REMARK  160  A    between atoms: _391  and  _392
REMARK  161  A    between atoms: _392  and  _506
REMARK  162  A    between atoms: _393  and  _395
REMARK  163  A    between atoms: _395  and  _396
REMARK  164  A    between atoms: _395  and  _398
REMARK  165  A    between atoms: _398  and  _399
REMARK  166  A    between atoms: _399  and  _400
REMARK  167  A    between atoms: _400  and  _401
REMARK  168  A    between atoms: _401  and  _402
REMARK  169  A    between atoms: _406  and  _408
REMARK  170  A    between atoms: _408  and  _409
REMARK  171  A    between atoms: _411  and  _413
REMARK  172  A    between atoms: _413  and  _414
REMARK  173  A    between atoms: _413  and  _416
REMARK  174  A    between atoms: _416  and  _417
REMARK  175  A    between atoms: _420  and  _422
REMARK  176  A    between atoms: _422  and  _423
REMARK  177  A    between atoms: _422  and  _425
REMARK  178  A    between atoms: _425  and  _426
REMARK  179  A    between atoms: _428  and  _430
REMARK  180  A    between atoms: _430  and  _431
REMARK  181  A    between atoms: _433  and  _435
REMARK  182  A    between atoms: _435  and  _436
REMARK  183  A    between atoms: _438  and  _440
REMARK  184  A    between atoms: _440  and  _441
REMARK  185  A    between atoms: _440  and  _443
REMARK  186  A    between atoms: _443  and  _444
REMARK  187  A    between atoms: _447  and  _449
REMARK  188  A    between atoms: _449  and  _450
REMARK  189  A    between atoms: _449  and  _452
REMARK  190  A    between atoms: _452  and  _453
REMARK  191  A    between atoms: _456  and  _458
REMARK  192  A    between atoms: _458  and  _459
REMARK  193  A    between atoms: _458  and  _461
REMARK  194  A    between atoms: _461  and  _462
REMARK  195  A    between atoms: _464  and  _466
REMARK  196  A    between atoms: _466  and  _467
REMARK  197  A    between atoms: _466  and  _469
REMARK  198  A    between atoms: _469  and  _470
REMARK  199  A    between atoms: _480  and  _482
REMARK  200  A    between atoms: _482  and  _483
REMARK  201  A    between atoms: _485  and  _487
REMARK  202  A    between atoms: _487  and  _488
REMARK  203  A    between atoms: _487  and  _490
REMARK  204  A    between atoms: _490  and  _491
REMARK  205  A    between atoms: _491  and  _492
REMARK  206  A    between atoms: _495  and  _497
REMARK  207  A    between atoms: _497  and  _498
REMARK  208  A    between atoms: _500  and  _502
REMARK  209  A    between atoms: _502  and  _503
REMARK  210  A    between atoms: _502  and  _505
REMARK  211  A    between atoms: _505  and  _506
REMARK  212  A    between atoms: _507  and  _509
REMARK  213  A    between atoms: _509  and  _510
REMARK  214  A    between atoms: _513  and  _515
REMARK  215  A    between atoms: _515  and  _516
REMARK  216  A    between atoms: _515  and  _518
REMARK  217  A    between atoms: _518  and  _519
REMARK  218  A    between atoms: _519  and  _520
REMARK  219  A    between atoms: _525  and  _527
REMARK  220  A    between atoms: _527  and  _528
REMARK  221  A    between atoms: _527  and  _530
REMARK  222  A    between atoms: _530  and  _531
REMARK  223  A    between atoms: _531  and  _532
REMARK  224  A    between atoms: _532  and  _533
REMARK  225  A    between atoms: _543  and  _544
REMARK  226  A    between atoms: _549  and  _551
REMARK  227  A    between atoms: _551  and  _552
REMARK  228  A    between atoms: _554  and  _556
REMARK  229  A    between atoms: _556  and  _557
REMARK  230  A    between atoms: _556  and  _559
REMARK  231  A    between atoms: _562  and  _564
REMARK  232  A    between atoms: _564  and  _565
REMARK  233  A    between atoms: _564  and  _567
REMARK  234  A    between atoms: _567  and  _568
REMARK  235  A    between atoms: _573  and  _574
REMARK  236  A    between atoms: _576  and  _578
REMARK  237  A    between atoms: _578  and  _579
REMARK  238  A    between atoms: _578  and  _581
REMARK  239  A    between atoms: _581  and  _582
REMARK                            x       y       z     vdW  Elec       q    Type
REMARK                         _______ _______ _______ _____ _____    ______ ____
ROOT
ATOM      1  O   HOH     1      45.549  28.005   6.155  0.00  0.00    +0.000 OA
ENDROOT
TORSDOF 0
REMARK  Name = ../refined-set-2016/4crf/4crf_pocket.pdb
REMARK  239 active torsions:
REMARK  status: ('A' for Active; 'I' for Inactive)
REMARK    1  A    between atoms: _1  and  _5
REMARK    2  A    between atoms: _5  and  _6
REMARK    3  A    between atoms: _5  and  _8
REMARK    4  A    between atoms: _8  and  _9
REMARK    5  A    between atoms: _12  and  _14
REMARK    6  A    between atoms: _14  and  _15
REMARK    7  A    between atoms: _14  and  _17
REMARK    8  A    between atoms: _20  and  _22
REMARK    9  A    between atoms: _22  and  _23
REMARK   10  A    between atoms: _22  and  _25
REMARK   11  A    between atoms: _25  and  _26
REMARK   12  A    between atoms: _29  and  _31
REMARK   13  A    between atoms: _31  and  _32
REMARK   14  A    between atoms: _31  and  _34
REMARK   15  A    between atoms: _34  and  _35
REMARK   16  A    between atoms: _38  and  _40
REMARK   17  A    between atoms: _40  and  _41
REMARK   18  A    between atoms: _40  and  _43
REMARK   19  A    between atoms: _43  and  _44
REMARK   20  A    between atoms: _47  and  _49
REMARK   21  A    between atoms: _49  and  _50
REMARK   22  A    between atoms: _49  and  _52
REMARK   23  A    between atoms: _52  and  _53
REMARK   24  A    between atoms: _56  and  _58
REMARK   25  A    between atoms: _58  and  _59
REMARK   26  A    between atoms: _58  and  _61
REMARK   27  A    between atoms: _61  and  _62
REMARK   28  A    between atoms: _62  and  _63
REMARK   29  A    between atoms: _68  and  _70
REMARK   30  A    between atoms: _70  and  _71
REMARK   31  A    between atoms: _70  and  _73
REMARK   32  A    between atoms: _73  and  _74
REMARK   33  A    between atoms: _74  and  _75
REMARK   34  A    between atoms: _75  and  _76
REMARK   35  A    between atoms: _85  and  _87
REMARK   36  A    between atoms: _87  and  _88
REMARK   37  A    between atoms: _87  and  _90
REMARK   38  A    between atoms: _90  and  _91
REMARK   39  A    between atoms: _96  and  _98
REMARK   40  A    between atoms: _98  and  _99
REMARK   41  A    between atoms: _98  and  _101
REMARK   42  A    between atoms: _101  and  _102
REMARK   43  A    between atoms: _105  and  _107
REMARK   44  A    between atoms: _107  and  _108
REMARK   45  A    between atoms: _107  and  _110
REMARK   46  A    between atoms: _110  and  _111
REMARK   47  A    between atoms: _111  and  _146
REMARK   48  A    between atoms: _112  and  _114
REMARK   49  A    between atoms: _114  and  _115
REMARK   50  A    between atoms: _117  and  _119
REMARK   51  A    between atoms: _119  and  _120
REMARK   52  A    between atoms: _123  and  _125
REMARK   53  A    between atoms: _125  and  _126
REMARK   54  A    between atoms: _129  and  _131
REMARK   55  A    between atoms: _131  and  _132
REMARK   56  A    between atoms: _131  and  _134
REMARK   57  A    between atoms: _134  and  _135
REMARK   58  A    between atoms: _140  and  _142
REMARK   59  A    between atoms: _142  and  _143
REMARK   60  A    between atoms: _142  and  _145
REMARK   61  A    between atoms: _145  and  _146
REMARK   62  A    between atoms: _147  and  _149
REMARK   63  A    between atoms: _149  and  _150
REMARK   64  A    between atoms: _149  and  _152
REMARK   65  A    between atoms: _152  and  _153
REMARK   66  A    between atoms: _159  and  _161
REMARK   67  A    between atoms: _161  and  _162
REMARK   68  A    between atoms: _161  and  _164
REMARK   69  A    between atoms: _164  and  _165
REMARK   70  A    between atoms: _170  and  _171
REMARK   71  A    between atoms: _173  and  _175
REMARK   72  A    between atoms: _175  and  _176
REMARK   73  A    between atoms: _178  and  _180
REMARK   74  A    between atoms: _180  and  _181
REMARK   75  A    between atoms: _180  and  _183
REMARK   76  A    between atoms: _186  and  _188
REMARK   77  A    between atoms: _188  and  _189
REMARK   78  A    between atoms: _192  and  _194
REMARK   79  A    between atoms: _194  and  _195
REMARK   80  A    between atoms: _194  and  _197
REMARK   81  A    between atoms: _197  and  _198
REMARK   82  A    between atoms: _201  and  _203
REMARK   83  A    between atoms: _203  and  _204
REMARK   84  A    between atoms: _203  and  _206
REMARK   85  A    between atoms: _209  and  _211
REMARK   86  A    between atoms: _211  and  _212
REMARK   87  A    between atoms: _211  and  _214
REMARK   88  A    between atoms: _214  and  _215
REMARK   89  A    between atoms: _225  and  _227
REMARK   90  A    between atoms: _227  and  _228
REMARK   91  A    between atoms: _230  and  _232
REMARK   92  A    between atoms: _232  and  _233
REMARK   93  A    between atoms: _232  and  _235
REMARK   94  A    between atoms: _235  and  _236
REMARK   95  A    between atoms: _241  and  _242
REMARK   96  A    between atoms: _244  and  _246
REMARK   97  A    between atoms: _246  and  _247
REMARK   98  A    between atoms: _246  and  _249
REMARK   99  A    between atoms: _249  and  _250
REMARK  100  A    between atoms: _250  and  _251
REMARK  101  A    between atoms: _251  and  _252
REMARK  102  A    between atoms: _252  and  _253
REMARK  103  A    between atoms: _257  and  _259
REMARK  104  A    between atoms: _259  and  _260
REMARK  105  A    between atoms: _259  and  _262
REMARK  106  A    between atoms: _262  and  _263
REMARK  107  A    between atoms: _266  and  _268
REMARK  108  A    between atoms: _268  and  _269
REMARK  109  A    between atoms: _268  and  _271
REMARK  110  A    between atoms: _271  and  _272
REMARK  111  A    between atoms: _272  and  _273
REMARK  112  A    between atoms: _273  and  _274
REMARK  113  A    between atoms: _283  and  _285
REMARK  114  A    between atoms: _285  and  _286
REMARK  115  A    between atoms: _285  and  _288
REMARK  116  A    between atoms: _288  and  _289
REMARK  117  A    between atoms: _292  and  _294
REMARK  118  A    between atoms: _294  and  _295
REMARK  119  A    between atoms: _294  and  _297
REMARK  120  A    between atoms: _297  and  _298
REMARK  121  A    between atoms: _298  and  _299
REMARK  122  A    between atoms: _299  and  _300
REMARK  123  A    between atoms: _300  and  _301
REMARK  124  A    between atoms: _305  and  _307
REMARK  125  A    between atoms: _307  and  _308
REMARK  126  A    between atoms: _307  and  _310
REMARK  127  A    between atoms: _310  and  _311
REMARK  128  A    between atoms: _314  and  _316
REMARK  129  A    between atoms: _316  and  _317
REMARK  130  A    between atoms: _316  and  _319
REMARK  131  A    between atoms: _319  and  _320
REMARK  132  A    between atoms: _320  and  _321
REMARK  133  A    between atoms: _326  and  _328
REMARK  134  A    between atoms: _328  and  _329
REMARK  135  A    between atoms: _328  and  _331
REMARK  136  A    between atoms: _331  and  _332
REMARK  137  A    between atoms: _335  and  _337
REMARK  138  A    between atoms: _337  and  _338
REMARK  139  A    between atoms: _337  and  _340
REMARK  140  A    between atoms: _340  and  _341
REMARK  141  A    between atoms: _346  and  _347
REMARK  142  A    between atoms: _349  and  _351
REMARK  143  A    between atoms: _351  and  _352
REMARK  144  A    between atoms: _351  and  _354
REMARK  145  A    between atoms: _354  and  _355
REMARK  146  A    between atoms: _358  and  _360
REMARK  147  A    between atoms: _360  and  _361
REMARK  148  A    between atoms: _360  and  _363
REMARK  149  A    between atoms: _365  and  _367
REMARK  150  A    between atoms: _367  and  _368
REMARK  151  A    between atoms: _371  and  _373
REMARK  152  A    between atoms: _373  and  _374
REMARK  153  A    between atoms: _373  and  _376
REMARK  154  A    between atoms: _376  and  _377
REMARK  155  A    between atoms: _380  and  _382
REMARK  156  A    between atoms: _382  and  _383
REMARK  157  A    between atoms: _386  and  _388
REMARK  158  A    between atoms: _388  and  _389
REMARK  159  A    between atoms: _388  and  _391
REMARK  160  A    between atoms: _391  and  _392
REMARK  161  A    between atoms: _392  and  _506
REMARK  162  A    between atoms: _393  and  _395
REMARK  163  A    between atoms: _395  and  _396
REMARK  164  A    between atoms: _395  and  _398
REMARK  165  A    between atoms: _398  and  _399
REMARK  166  A    between atoms: _399  and  _400
REMARK  167  A    between atoms: _400  and  _401
REMARK  168  A    between atoms: _401  and  _402
REMARK  169  A    between atoms: _406  and  _408
REMARK  170  A    between atoms: _408  and  _409
REMARK  171  A    between atoms: _411  and  _413
REMARK  172  A    between atoms: _413  and  _414
REMARK  173  A    between atoms: _413  and  _416
REMARK  174  A    between atoms: _416  and  _417
REMARK  175  A    between atoms: _420  and  _422
REMARK  176  A    between atoms: _422  and  _423
REMARK  177  A    between atoms: _422  and  _425
REMARK  178  A    between atoms: _425  and  _426
REMARK  179  A    between atoms: _428  and  _430
REMARK  180  A    between atoms: _430  and  _431
REMARK  181  A    between atoms: _433  and  _435
REMARK  182  A    between atoms: _435  and  _436
REMARK  183  A    between atoms: _438  and  _440
REMARK  184  A    between atoms: _440  and  _441
REMARK  185  A    between atoms: _440  and  _443
REMARK  186  A    between atoms: _443  and  _444
REMARK  187  A    between atoms: _447  and  _449
REMARK  188  A    between atoms: _449  and  _450
REMARK  189  A    between atoms: _449  and  _452
REMARK  190  A    between atoms: _452  and  _453
REMARK  191  A    between atoms: _456  and  _458
REMARK  192  A    between atoms: _458  and  _459
REMARK  193  A    between atoms: _458  and  _461
REMARK  194  A    between atoms: _461  and  _462
REMARK  195  A    between atoms: _464  and  _466
REMARK  196  A    between atoms: _466  and  _467
REMARK  197  A    between atoms: _466  and  _469
REMARK  198  A    between atoms: _469  and  _470
REMARK  199  A    between atoms: _480  and  _482
REMARK  200  A    between atoms: _482  and  _483
REMARK  201  A    between atoms: _485  and  _487
REMARK  202  A    between atoms: _487  and  _488
REMARK  203  A    between atoms: _487  and  _490
REMARK  204  A    between atoms: _490  and  _491
REMARK  205  A    between atoms: _491  and  _492
REMARK  206  A    between atoms: _495  and  _497
REMARK  207  A    between atoms: _497  and  _498
REMARK  208  A    between atoms: _500  and  _502
REMARK  209  A    between atoms: _502  and  _503
REMARK  210  A    between atoms: _502  and  _505
REMARK  211  A    between atoms: _505  and  _506
REMARK  212  A    between atoms: _507  and  _509
REMARK  213  A    between atoms: _509  and  _510
REMARK  214  A    between atoms: _513  and  _515
REMARK  215  A    between atoms: _515  and  _516
REMARK  216  A    between atoms: _515  and  _518
REMARK  217  A    between atoms: _518  and  _519
REMARK  218  A    between atoms: _519  and  _520
REMARK  219  A    between atoms: _525  and  _527
REMARK  220  A    between atoms: _527  and  _528
REMARK  221  A    between atoms: _527  and  _530
REMARK  222  A    between atoms: _530  and  _531
REMARK  223  A    between atoms: _531  and  _532
REMARK  224  A    between atoms: _532  and  _533
REMARK  225  A    between atoms: _543  and  _544
REMARK  226  A    between atoms: _549  and  _551
REMARK  227  A    between atoms: _551  and  _552
REMARK  228  A    between atoms: _554  and  _556
REMARK  229  A    between atoms: _556  and  _557
REMARK  230  A    between atoms: _556  and  _559
REMARK  231  A    between atoms: _562  and  _564
REMARK  232  A    between atoms: _564  and  _565
REMARK  233  A    between atoms: _564  and  _567
REMARK  234  A    between atoms: _567  and  _568
REMARK  235  A    between atoms: _573  and  _574
REMARK  236  A    between atoms: _576  and  _578
REMARK  237  A    between atoms: _578  and  _579
REMARK  238  A    between atoms: _578  and  _581
REMARK  239  A    between atoms: _581  and  _582
REMARK                            x       y       z     vdW  Elec       q    Type
REMARK                         _______ _______ _______ _____ _____    ______ ____
ROOT
ATOM      1  O   HOH     1      55.498  32.780   0.002  0.00  0.00    +0.000 OA
ENDROOT
TORSDOF 0
REMARK  Name = ../refined-set-2016/4crf/4crf_pocket.pdb
REMARK  239 active torsions:
REMARK  status: ('A' for Active; 'I' for Inactive)
REMARK    1  A    between atoms: _1  and  _5
REMARK    2  A    between atoms: _5  and  _6
REMARK    3  A    between atoms: _5  and  _8
REMARK    4  A    between atoms: _8  and  _9
REMARK    5  A    between atoms: _12  and  _14
REMARK    6  A    between atoms: _14  and  _15
REMARK    7  A    between atoms: _14  and  _17
REMARK    8  A    between atoms: _20  and  _22
REMARK    9  A    between atoms: _22  and  _23
REMARK   10  A    between atoms: _22  and  _25
REMARK   11  A    between atoms: _25  and  _26
REMARK   12  A    between atoms: _29  and  _31
REMARK   13  A    between atoms: _31  and  _32
REMARK   14  A    between atoms: _31  and  _34
REMARK   15  A    between atoms: _34  and  _35
REMARK   16  A    between atoms: _38  and  _40
REMARK   17  A    between atoms: _40  and  _41
REMARK   18  A    between atoms: _40  and  _43
REMARK   19  A    between atoms: _43  and  _44
REMARK   20  A    between atoms: _47  and  _49
REMARK   21  A    between atoms: _49  and  _50
REMARK   22  A    between atoms: _49  and  _52
REMARK   23  A    between atoms: _52  and  _53
REMARK   24  A    between atoms: _56  and  _58
REMARK   25  A    between atoms: _58  and  _59
REMARK   26  A    between atoms: _58  and  _61
REMARK   27  A    between atoms: _61  and  _62
REMARK   28  A    between atoms: _62  and  _63
REMARK   29  A    between atoms: _68  and  _70
REMARK   30  A    between atoms: _70  and  _71
REMARK   31  A    between atoms: _70  and  _73
REMARK   32  A    between atoms: _73  and  _74
REMARK   33  A    between atoms: _74  and  _75
REMARK   34  A    between atoms: _75  and  _76
REMARK   35  A    between atoms: _85  and  _87
REMARK   36  A    between atoms: _87  and  _88
REMARK   37  A    between atoms: _87  and  _90
REMARK   38  A    between atoms: _90  and  _91
REMARK   39  A    between atoms: _96  and  _98
REMARK   40  A    between atoms: _98  and  _99
REMARK   41  A    between atoms: _98  and  _101
REMARK   42  A    between atoms: _101  and  _102
REMARK   43  A    between atoms: _105  and  _107
REMARK   44  A    between atoms: _107  and  _108
REMARK   45  A    between atoms: _107  and  _110
REMARK   46  A    between atoms: _110  and  _111
REMARK   47  A    between atoms: _111  and  _146
REMARK   48  A    between atoms: _112  and  _114
REMARK   49  A    between atoms: _114  and  _115
REMARK   50  A    between atoms: _117  and  _119
REMARK   51  A    between atoms: _119  and  _120
REMARK   52  A    between atoms: _123  and  _125
REMARK   53  A    between atoms: _125  and  _126
REMARK   54  A    between atoms: _129  and  _131
REMARK   55  A    between atoms: _131  and  _132
REMARK   56  A    between atoms: _131  and  _134
REMARK   57  A    between atoms: _134  and  _135
REMARK   58  A    between atoms: _140  and  _142
REMARK   59  A    between atoms: _142  and  _143
REMARK   60  A    between atoms: _142  and  _145
REMARK   61  A    between atoms: _145  and  _146
REMARK   62  A    between atoms: _147  and  _149
REMARK   63  A    between atoms: _149  and  _150
REMARK   64  A    between atoms: _149  and  _152
REMARK   65  A    between atoms: _152  and  _153
REMARK   66  A    between atoms: _159  and  _161
REMARK   67  A    between atoms: _161  and  _162
REMARK   68  A    between atoms: _161  and  _164
REMARK   69  A    between atoms: _164  and  _165
REMARK   70  A    between atoms: _170  and  _171
REMARK   71  A    between atoms: _173  and  _175
REMARK   72  A    between atoms: _175  and  _176
REMARK   73  A    between atoms: _178  and  _180
REMARK   74  A    between atoms: _180  and  _181
REMARK   75  A    between atoms: _180  and  _183
REMARK   76  A    between atoms: _186  and  _188
REMARK   77  A    between atoms: _188  and  _189
REMARK   78  A    between atoms: _192  and  _194
REMARK   79  A    between atoms: _194  and  _195
REMARK   80  A    between atoms: _194  and  _197
REMARK   81  A    between atoms: _197  and  _198
REMARK   82  A    between atoms: _201  and  _203
REMARK   83  A    between atoms: _203  and  _204
REMARK   84  A    between atoms: _203  and  _206
REMARK   85  A    between atoms: _209  and  _211
REMARK   86  A    between atoms: _211  and  _212
REMARK   87  A    between atoms: _211  and  _214
REMARK   88  A    between atoms: _214  and  _215
REMARK   89  A    between atoms: _225  and  _227
REMARK   90  A    between atoms: _227  and  _228
REMARK   91  A    between atoms: _230  and  _232
REMARK   92  A    between atoms: _232  and  _233
REMARK   93  A    between atoms: _232  and  _235
REMARK   94  A    between atoms: _235  and  _236
REMARK   95  A    between atoms: _241  and  _242
REMARK   96  A    between atoms: _244  and  _246
REMARK   97  A    between atoms: _246  and  _247
REMARK   98  A    between atoms: _246  and  _249
REMARK   99  A    between atoms: _249  and  _250
REMARK  100  A    between atoms: _250  and  _251
REMARK  101  A    between atoms: _251  and  _252
REMARK  102  A    between atoms: _252  and  _253
REMARK  103  A    between atoms: _257  and  _259
REMARK  104  A    between atoms: _259  and  _260
REMARK  105  A    between atoms: _259  and  _262
REMARK  106  A    between atoms: _262  and  _263
REMARK  107  A    between atoms: _266  and  _268
REMARK  108  A    between atoms: _268  and  _269
REMARK  109  A    between atoms: _268  and  _271
REMARK  110  A    between atoms: _271  and  _272
REMARK  111  A    between atoms: _272  and  _273
REMARK  112  A    between atoms: _273  and  _274
REMARK  113  A    between atoms: _283  and  _285
REMARK  114  A    between atoms: _285  and  _286
REMARK  115  A    between atoms: _285  and  _288
REMARK  116  A    between atoms: _288  and  _289
REMARK  117  A    between atoms: _292  and  _294
REMARK  118  A    between atoms: _294  and  _295
REMARK  119  A    between atoms: _294  and  _297
REMARK  120  A    between atoms: _297  and  _298
REMARK  121  A    between atoms: _298  and  _299
REMARK  122  A    between atoms: _299  and  _300
REMARK  123  A    between atoms: _300  and  _301
REMARK  124  A    between atoms: _305  and  _307
REMARK  125  A    between atoms: _307  and  _308
REMARK  126  A    between atoms: _307  and  _310
REMARK  127  A    between atoms: _310  and  _311
REMARK  128  A    between atoms: _314  and  _316
REMARK  129  A    between atoms: _316  and  _317
REMARK  130  A    between atoms: _316  and  _319
REMARK  131  A    between atoms: _319  and  _320
REMARK  132  A    between atoms: _320  and  _321
REMARK  133  A    between atoms: _326  and  _328
REMARK  134  A    between atoms: _328  and  _329
REMARK  135  A    between atoms: _328  and  _331
REMARK  136  A    between atoms: _331  and  _332
REMARK  137  A    between atoms: _335  and  _337
REMARK  138  A    between atoms: _337  and  _338
REMARK  139  A    between atoms: _337  and  _340
REMARK  140  A    between atoms: _340  and  _341
REMARK  141  A    between atoms: _346  and  _347
REMARK  142  A    between atoms: _349  and  _351
REMARK  143  A    between atoms: _351  and  _352
REMARK  144  A    between atoms: _351  and  _354
REMARK  145  A    between atoms: _354  and  _355
REMARK  146  A    between atoms: _358  and  _360
REMARK  147  A    between atoms: _360  and  _361
REMARK  148  A    between atoms: _360  and  _363
REMARK  149  A    between atoms: _365  and  _367
REMARK  150  A    between atoms: _367  and  _368
REMARK  151  A    between atoms: _371  and  _373
REMARK  152  A    between atoms: _373  and  _374
REMARK  153  A    between atoms: _373  and  _376
REMARK  154  A    between atoms: _376  and  _377
REMARK  155  A    between atoms: _380  and  _382
REMARK  156  A    between atoms: _382  and  _383
REMARK  157  A    between atoms: _386  and  _388
REMARK  158  A    between atoms: _388  and  _389
REMARK  159  A    between atoms: _388  and  _391
REMARK  160  A    between atoms: _391  and  _392
REMARK  161  A    between atoms: _392  and  _506
REMARK  162  A    between atoms: _393  and  _395
REMARK  163  A    between atoms: _395  and  _396
REMARK  164  A    between atoms: _395  and  _398
REMARK  165  A    between atoms: _398  and  _399
REMARK  166  A    between atoms: _399  and  _400
REMARK  167  A    between atoms: _400  and  _401
REMARK  168  A    between atoms: _401  and  _402
REMARK  169  A    between atoms: _406  and  _408
REMARK  170  A    between atoms: _408  and  _409
REMARK  171  A    between atoms: _411  and  _413
REMARK  172  A    between atoms: _413  and  _414
REMARK  173  A    between atoms: _413  and  _416
REMARK  174  A    between atoms: _416  and  _417
REMARK  175  A    between atoms: _420  and  _422
REMARK  176  A    between atoms: _422  and  _423
REMARK  177  A    between atoms: _422  and  _425
REMARK  178  A    between atoms: _425  and  _426
REMARK  179  A    between atoms: _428  and  _430
REMARK  180  A    between atoms: _430  and  _431
REMARK  181  A    between atoms: _433  and  _435
REMARK  182  A    between atoms: _435  and  _436
REMARK  183  A    between atoms: _438  and  _440
REMARK  184  A    between atoms: _440  and  _441
REMARK  185  A    between atoms: _440  and  _443
REMARK  186  A    between atoms: _443  and  _444
REMARK  187  A    between atoms: _447  and  _449
REMARK  188  A    between atoms: _449  and  _450
REMARK  189  A    between atoms: _449  and  _452
REMARK  190  A    between atoms: _452  and  _453
REMARK  191  A    between atoms: _456  and  _458
REMARK  192  A    between atoms: _458  and  _459
REMARK  193  A    between atoms: _458  and  _461
REMARK  194  A    between atoms: _461  and  _462
REMARK  195  A    between atoms: _464  and  _466
REMARK  196  A    between atoms: _466  and  _467
REMARK  197  A    between atoms: _466  and  _469
REMARK  198  A    between atoms: _469  and  _470
REMARK  199  A    between atoms: _480  and  _482
REMARK  200  A    between atoms: _482  and  _483
REMARK  201  A    between atoms: _485  and  _487
REMARK  202  A    between atoms: _487  and  _488
REMARK  203  A    between atoms: _487  and  _490
REMARK  204  A    between atoms: _490  and  _491
REMARK  205  A    between atoms: _491  and  _492
REMARK  206  A    between atoms: _495  and  _497
REMARK  207  A    between atoms: _497  and  _498
REMARK  208  A    between atoms: _500  and  _502
REMARK  209  A    between atoms: _502  and  _503
REMARK  210  A    between atoms: _502  and  _505
REMARK  211  A    between atoms: _505  and  _506
REMARK  212  A    between atoms: _507  and  _509
REMARK  213  A    between atoms: _509  and  _510
REMARK  214  A    between atoms: _513  and  _515
REMARK  215  A    between atoms: _515  and  _516
REMARK  216  A    between atoms: _515  and  _518
REMARK  217  A    between atoms: _518  and  _519
REMARK  218  A    between atoms: _519  and  _520
REMARK  219  A    between atoms: _525  and  _527
REMARK  220  A    between atoms: _527  and  _528
REMARK  221  A    between atoms: _527  and  _530
REMARK  222  A    between atoms: _530  and  _531
REMARK  223  A    between atoms: _531  and  _532
REMARK  224  A    between atoms: _532  and  _533
REMARK  225  A    between atoms: _543  and  _544
REMARK  226  A    between atoms: _549  and  _551
REMARK  227  A    between atoms: _551  and  _552
REMARK  228  A    between atoms: _554  and  _556
REMARK  229  A    between atoms: _556  and  _557
REMARK  230  A    between atoms: _556  and  _559
REMARK  231  A    between atoms: _562  and  _564
REMARK  232  A    between atoms: _564  and  _565
REMARK  233  A    between atoms: _564  and  _567
REMARK  234  A    between atoms: _567  and  _568
REMARK  235  A    between atoms: _573  and  _574
REMARK  236  A    between atoms: _576  and  _578
REMARK  237  A    between atoms: _578  and  _579
REMARK  238  A    between atoms: _578  and  _581
REMARK  239  A    between atoms: _581  and  _582
REMARK                            x       y       z     vdW  Elec       q    Type
REMARK                         _______ _______ _______ _____ _____    ______ ____
ROOT
ATOM      1  O   HOH     1      56.202  31.979   1.971  0.00  0.00    +0.000 OA
ENDROOT
TORSDOF 0
REMARK  Name = ../refined-set-2016/4crf/4crf_pocket.pdb
REMARK  239 active torsions:
REMARK  status: ('A' for Active; 'I' for Inactive)
REMARK    1  A    between atoms: _1  and  _5
REMARK    2  A    between atoms: _5  and  _6
REMARK    3  A    between atoms: _5  and  _8
REMARK    4  A    between atoms: _8  and  _9
REMARK    5  A    between atoms: _12  and  _14
REMARK    6  A    between atoms: _14  and  _15
REMARK    7  A    between atoms: _14  and  _17
REMARK    8  A    between atoms: _20  and  _22
REMARK    9  A    between atoms: _22  and  _23
REMARK   10  A    between atoms: _22  and  _25
REMARK   11  A    between atoms: _25  and  _26
REMARK   12  A    between atoms: _29  and  _31
REMARK   13  A    between atoms: _31  and  _32
REMARK   14  A    between atoms: _31  and  _34
REMARK   15  A    between atoms: _34  and  _35
REMARK   16  A    between atoms: _38  and  _40
REMARK   17  A    between atoms: _40  and  _41
REMARK   18  A    between atoms: _40  and  _43
REMARK   19  A    between atoms: _43  and  _44
REMARK   20  A    between atoms: _47  and  _49
REMARK   21  A    between atoms: _49  and  _50
REMARK   22  A    between atoms: _49  and  _52
REMARK   23  A    between atoms: _52  and  _53
REMARK   24  A    between atoms: _56  and  _58
REMARK   25  A    between atoms: _58  and  _59
REMARK   26  A    between atoms: _58  and  _61
REMARK   27  A    between atoms: _61  and  _62
REMARK   28  A    between atoms: _62  and  _63
REMARK   29  A    between atoms: _68  and  _70
REMARK   30  A    between atoms: _70  and  _71
REMARK   31  A    between atoms: _70  and  _73
REMARK   32  A    between atoms: _73  and  _74
REMARK   33  A    between atoms: _74  and  _75
REMARK   34  A    between atoms: _75  and  _76
REMARK   35  A    between atoms: _85  and  _87
REMARK   36  A    between atoms: _87  and  _88
REMARK   37  A    between atoms: _87  and  _90
REMARK   38  A    between atoms: _90  and  _91
REMARK   39  A    between atoms: _96  and  _98
REMARK   40  A    between atoms: _98  and  _99
REMARK   41  A    between atoms: _98  and  _101
REMARK   42  A    between atoms: _101  and  _102
REMARK   43  A    between atoms: _105  and  _107
REMARK   44  A    between atoms: _107  and  _108
REMARK   45  A    between atoms: _107  and  _110
REMARK   46  A    between atoms: _110  and  _111
REMARK   47  A    between atoms: _111  and  _146
REMARK   48  A    between atoms: _112  and  _114
REMARK   49  A    between atoms: _114  and  _115
REMARK   50  A    between atoms: _117  and  _119
REMARK   51  A    between atoms: _119  and  _120
REMARK   52  A    between atoms: _123  and  _125
REMARK   53  A    between atoms: _125  and  _126
REMARK   54  A    between atoms: _129  and  _131
REMARK   55  A    between atoms: _131  and  _132
REMARK   56  A    between atoms: _131  and  _134
REMARK   57  A    between atoms: _134  and  _135
REMARK   58  A    between atoms: _140  and  _142
REMARK   59  A    between atoms: _142  and  _143
REMARK   60  A    between atoms: _142  and  _145
REMARK   61  A    between atoms: _145  and  _146
REMARK   62  A    between atoms: _147  and  _149
REMARK   63  A    between atoms: _149  and  _150
REMARK   64  A    between atoms: _149  and  _152
REMARK   65  A    between atoms: _152  and  _153
REMARK   66  A    between atoms: _159  and  _161
REMARK   67  A    between atoms: _161  and  _162
REMARK   68  A    between atoms: _161  and  _164
REMARK   69  A    between atoms: _164  and  _165
REMARK   70  A    between atoms: _170  and  _171
REMARK   71  A    between atoms: _173  and  _175
REMARK   72  A    between atoms: _175  and  _176
REMARK   73  A    between atoms: _178  and  _180
REMARK   74  A    between atoms: _180  and  _181
REMARK   75  A    between atoms: _180  and  _183
REMARK   76  A    between atoms: _186  and  _188
REMARK   77  A    between atoms: _188  and  _189
REMARK   78  A    between atoms: _192  and  _194
REMARK   79  A    between atoms: _194  and  _195
REMARK   80  A    between atoms: _194  and  _197
REMARK   81  A    between atoms: _197  and  _198
REMARK   82  A    between atoms: _201  and  _203
REMARK   83  A    between atoms: _203  and  _204
REMARK   84  A    between atoms: _203  and  _206
REMARK   85  A    between atoms: _209  and  _211
REMARK   86  A    between atoms: _211  and  _212
REMARK   87  A    between atoms: _211  and  _214
REMARK   88  A    between atoms: _214  and  _215
REMARK   89  A    between atoms: _225  and  _227
REMARK   90  A    between atoms: _227  and  _228
REMARK   91  A    between atoms: _230  and  _232
REMARK   92  A    between atoms: _232  and  _233
REMARK   93  A    between atoms: _232  and  _235
REMARK   94  A    between atoms: _235  and  _236
REMARK   95  A    between atoms: _241  and  _242
REMARK   96  A    between atoms: _244  and  _246
REMARK   97  A    between atoms: _246  and  _247
REMARK   98  A    between atoms: _246  and  _249
REMARK   99  A    between atoms: _249  and  _250
REMARK  100  A    between atoms: _250  and  _251
REMARK  101  A    between atoms: _251  and  _252
REMARK  102  A    between atoms: _252  and  _253
REMARK  103  A    between atoms: _257  and  _259
REMARK  104  A    between atoms: _259  and  _260
REMARK  105  A    between atoms: _259  and  _262
REMARK  106  A    between atoms: _262  and  _263
REMARK  107  A    between atoms: _266  and  _268
REMARK  108  A    between atoms: _268  and  _269
REMARK  109  A    between atoms: _268  and  _271
REMARK  110  A    between atoms: _271  and  _272
REMARK  111  A    between atoms: _272  and  _273
REMARK  112  A    between atoms: _273  and  _274
REMARK  113  A    between atoms: _283  and  _285
REMARK  114  A    between atoms: _285  and  _286
REMARK  115  A    between atoms: _285  and  _288
REMARK  116  A    between atoms: _288  and  _289
REMARK  117  A    between atoms: _292  and  _294
REMARK  118  A    between atoms: _294  and  _295
REMARK  119  A    between atoms: _294  and  _297
REMARK  120  A    between atoms: _297  and  _298
REMARK  121  A    between atoms: _298  and  _299
REMARK  122  A    between atoms: _299  and  _300
REMARK  123  A    between atoms: _300  and  _301
REMARK  124  A    between atoms: _305  and  _307
REMARK  125  A    between atoms: _307  and  _308
REMARK  126  A    between atoms: _307  and  _310
REMARK  127  A    between atoms: _310  and  _311
REMARK  128  A    between atoms: _314  and  _316
REMARK  129  A    between atoms: _316  and  _317
REMARK  130  A    between atoms: _316  and  _319
REMARK  131  A    between atoms: _319  and  _320
REMARK  132  A    between atoms: _320  and  _321
REMARK  133  A    between atoms: _326  and  _328
REMARK  134  A    between atoms: _328  and  _329
REMARK  135  A    between atoms: _328  and  _331
REMARK  136  A    between atoms: _331  and  _332
REMARK  137  A    between atoms: _335  and  _337
REMARK  138  A    between atoms: _337  and  _338
REMARK  139  A    between atoms: _337  and  _340
REMARK  140  A    between atoms: _340  and  _341
REMARK  141  A    between atoms: _346  and  _347
REMARK  142  A    between atoms: _349  and  _351
REMARK  143  A    between atoms: _351  and  _352
REMARK  144  A    between atoms: _351  and  _354
REMARK  145  A    between atoms: _354  and  _355
REMARK  146  A    between atoms: _358  and  _360
REMARK  147  A    between atoms: _360  and  _361
REMARK  148  A    between atoms: _360  and  _363
REMARK  149  A    between atoms: _365  and  _367
REMARK  150  A    between atoms: _367  and  _368
REMARK  151  A    between atoms: _371  and  _373
REMARK  152  A    between atoms: _373  and  _374
REMARK  153  A    between atoms: _373  and  _376
REMARK  154  A    between atoms: _376  and  _377
REMARK  155  A    between atoms: _380  and  _382
REMARK  156  A    between atoms: _382  and  _383
REMARK  157  A    between atoms: _386  and  _388
REMARK  158  A    between atoms: _388  and  _389
REMARK  159  A    between atoms: _388  and  _391
REMARK  160  A    between atoms: _391  and  _392
REMARK  161  A    between atoms: _392  and  _506
REMARK  162  A    between atoms: _393  and  _395
REMARK  163  A    between atoms: _395  and  _396
REMARK  164  A    between atoms: _395  and  _398
REMARK  165  A    between atoms: _398  and  _399
REMARK  166  A    between atoms: _399  and  _400
REMARK  167  A    between atoms: _400  and  _401
REMARK  168  A    between atoms: _401  and  _402
REMARK  169  A    between atoms: _406  and  _408
REMARK  170  A    between atoms: _408  and  _409
REMARK  171  A    between atoms: _411  and  _413
REMARK  172  A    between atoms: _413  and  _414
REMARK  173  A    between atoms: _413  and  _416
REMARK  174  A    between atoms: _416  and  _417
REMARK  175  A    between atoms: _420  and  _422
REMARK  176  A    between atoms: _422  and  _423
REMARK  177  A    between atoms: _422  and  _425
REMARK  178  A    between atoms: _425  and  _426
REMARK  179  A    between atoms: _428  and  _430
REMARK  180  A    between atoms: _430  and  _431
REMARK  181  A    between atoms: _433  and  _435
REMARK  182  A    between atoms: _435  and  _436
REMARK  183  A    between atoms: _438  and  _440
REMARK  184  A    between atoms: _440  and  _441
REMARK  185  A    between atoms: _440  and  _443
REMARK  186  A    between atoms: _443  and  _444
REMARK  187  A    between atoms: _447  and  _449
REMARK  188  A    between atoms: _449  and  _450
REMARK  189  A    between atoms: _449  and  _452
REMARK  190  A    between atoms: _452  and  _453
REMARK  191  A    between atoms: _456  and  _458
REMARK  192  A    between atoms: _458  and  _459
REMARK  193  A    between atoms: _458  and  _461
REMARK  194  A    between atoms: _461  and  _462
REMARK  195  A    between atoms: _464  and  _466
REMARK  196  A    between atoms: _466  and  _467
REMARK  197  A    between atoms: _466  and  _469
REMARK  198  A    between atoms: _469  and  _470
REMARK  199  A    between atoms: _480  and  _482
REMARK  200  A    between atoms: _482  and  _483
REMARK  201  A    between atoms: _485  and  _487
REMARK  202  A    between atoms: _487  and  _488
REMARK  203  A    between atoms: _487  and  _490
REMARK  204  A    between atoms: _490  and  _491
REMARK  205  A    between atoms: _491  and  _492
REMARK  206  A    between atoms: _495  and  _497
REMARK  207  A    between atoms: _497  and  _498
REMARK  208  A    between atoms: _500  and  _502
REMARK  209  A    between atoms: _502  and  _503
REMARK  210  A    between atoms: _502  and  _505
REMARK  211  A    between atoms: _505  and  _506
REMARK  212  A    between atoms: _507  and  _509
REMARK  213  A    between atoms: _509  and  _510
REMARK  214  A    between atoms: _513  and  _515
REMARK  215  A    between atoms: _515  and  _516
REMARK  216  A    between atoms: _515  and  _518
REMARK  217  A    between atoms: _518  and  _519
REMARK  218  A    between atoms: _519  and  _520
REMARK  219  A    between atoms: _525  and  _527
REMARK  220  A    between atoms: _527  and  _528
REMARK  221  A    between atoms: _527  and  _530
REMARK  222  A    between atoms: _530  and  _531
REMARK  223  A    between atoms: _531  and  _532
REMARK  224  A    between atoms: _532  and  _533
REMARK  225  A    between atoms: _543  and  _544
REMARK  226  A    between atoms: _549  and  _551
REMARK  227  A    between atoms: _551  and  _552
REMARK  228  A    between atoms: _554  and  _556
REMARK  229  A    between atoms: _556  and  _557
REMARK  230  A    between atoms: _556  and  _559
REMARK  231  A    between atoms: _562  and  _564
REMARK  232  A    between atoms: _564  and  _565
REMARK  233  A    between atoms: _564  and  _567
REMARK  234  A    between atoms: _567  and  _568
REMARK  235  A    between atoms: _573  and  _574
REMARK  236  A    between atoms: _576  and  _578
REMARK  237  A    between atoms: _578  and  _579
REMARK  238  A    between atoms: _578  and  _581
REMARK  239  A    between atoms: _581  and  _582
REMARK                            x       y       z     vdW  Elec       q    Type
REMARK                         _______ _______ _______ _____ _____    ______ ____
ROOT
ATOM      1  O   HOH     1      47.786  28.628   4.702  0.00  0.00    +0.000 OA
ENDROOT
TORSDOF 0
REMARK  Name = ../refined-set-2016/4crf/4crf_pocket.pdb
REMARK  239 active torsions:
REMARK  status: ('A' for Active; 'I' for Inactive)
REMARK    1  A    between atoms: _1  and  _5
REMARK    2  A    between atoms: _5  and  _6
REMARK    3  A    between atoms: _5  and  _8
REMARK    4  A    between atoms: _8  and  _9
REMARK    5  A    between atoms: _12  and  _14
REMARK    6  A    between atoms: _14  and  _15
REMARK    7  A    between atoms: _14  and  _17
REMARK    8  A    between atoms: _20  and  _22
REMARK    9  A    between atoms: _22  and  _23
REMARK   10  A    between atoms: _22  and  _25
REMARK   11  A    between atoms: _25  and  _26
REMARK   12  A    between atoms: _29  and  _31
REMARK   13  A    between atoms: _31  and  _32
REMARK   14  A    between atoms: _31  and  _34
REMARK   15  A    between atoms: _34  and  _35
REMARK   16  A    between atoms: _38  and  _40
REMARK   17  A    between atoms: _40  and  _41
REMARK   18  A    between atoms: _40  and  _43
REMARK   19  A    between atoms: _43  and  _44
REMARK   20  A    between atoms: _47  and  _49
REMARK   21  A    between atoms: _49  and  _50
REMARK   22  A    between atoms: _49  and  _52
REMARK   23  A    between atoms: _52  and  _53
REMARK   24  A    between atoms: _56  and  _58
REMARK   25  A    between atoms: _58  and  _59
REMARK   26  A    between atoms: _58  and  _61
REMARK   27  A    between atoms: _61  and  _62
REMARK   28  A    between atoms: _62  and  _63
REMARK   29  A    between atoms: _68  and  _70
REMARK   30  A    between atoms: _70  and  _71
REMARK   31  A    between atoms: _70  and  _73
REMARK   32  A    between atoms: _73  and  _74
REMARK   33  A    between atoms: _74  and  _75
REMARK   34  A    between atoms: _75  and  _76
REMARK   35  A    between atoms: _85  and  _87
REMARK   36  A    between atoms: _87  and  _88
REMARK   37  A    between atoms: _87  and  _90
REMARK   38  A    between atoms: _90  and  _91
REMARK   39  A    between atoms: _96  and  _98
REMARK   40  A    between atoms: _98  and  _99
REMARK   41  A    between atoms: _98  and  _101
REMARK   42  A    between atoms: _101  and  _102
REMARK   43  A    between atoms: _105  and  _107
REMARK   44  A    between atoms: _107  and  _108
REMARK   45  A    between atoms: _107  and  _110
REMARK   46  A    between atoms: _110  and  _111
REMARK   47  A    between atoms: _111  and  _146
REMARK   48  A    between atoms: _112  and  _114
REMARK   49  A    between atoms: _114  and  _115
REMARK   50  A    between atoms: _117  and  _119
REMARK   51  A    between atoms: _119  and  _120
REMARK   52  A    between atoms: _123  and  _125
REMARK   53  A    between atoms: _125  and  _126
REMARK   54  A    between atoms: _129  and  _131
REMARK   55  A    between atoms: _131  and  _132
REMARK   56  A    between atoms: _131  and  _134
REMARK   57  A    between atoms: _134  and  _135
REMARK   58  A    between atoms: _140  and  _142
REMARK   59  A    between atoms: _142  and  _143
REMARK   60  A    between atoms: _142  and  _145
REMARK   61  A    between atoms: _145  and  _146
REMARK   62  A    between atoms: _147  and  _149
REMARK   63  A    between atoms: _149  and  _150
REMARK   64  A    between atoms: _149  and  _152
REMARK   65  A    between atoms: _152  and  _153
REMARK   66  A    between atoms: _159  and  _161
REMARK   67  A    between atoms: _161  and  _162
REMARK   68  A    between atoms: _161  and  _164
REMARK   69  A    between atoms: _164  and  _165
REMARK   70  A    between atoms: _170  and  _171
REMARK   71  A    between atoms: _173  and  _175
REMARK   72  A    between atoms: _175  and  _176
REMARK   73  A    between atoms: _178  and  _180
REMARK   74  A    between atoms: _180  and  _181
REMARK   75  A    between atoms: _180  and  _183
REMARK   76  A    between atoms: _186  and  _188
REMARK   77  A    between atoms: _188  and  _189
REMARK   78  A    between atoms: _192  and  _194
REMARK   79  A    between atoms: _194  and  _195
REMARK   80  A    between atoms: _194  and  _197
REMARK   81  A    between atoms: _197  and  _198
REMARK   82  A    between atoms: _201  and  _203
REMARK   83  A    between atoms: _203  and  _204
REMARK   84  A    between atoms: _203  and  _206
REMARK   85  A    between atoms: _209  and  _211
REMARK   86  A    between atoms: _211  and  _212
REMARK   87  A    between atoms: _211  and  _214
REMARK   88  A    between atoms: _214  and  _215
REMARK   89  A    between atoms: _225  and  _227
REMARK   90  A    between atoms: _227  and  _228
REMARK   91  A    between atoms: _230  and  _232
REMARK   92  A    between atoms: _232  and  _233
REMARK   93  A    between atoms: _232  and  _235
REMARK   94  A    between atoms: _235  and  _236
REMARK   95  A    between atoms: _241  and  _242
REMARK   96  A    between atoms: _244  and  _246
REMARK   97  A    between atoms: _246  and  _247
REMARK   98  A    between atoms: _246  and  _249
REMARK   99  A    between atoms: _249  and  _250
REMARK  100  A    between atoms: _250  and  _251
REMARK  101  A    between atoms: _251  and  _252
REMARK  102  A    between atoms: _252  and  _253
REMARK  103  A    between atoms: _257  and  _259
REMARK  104  A    between atoms: _259  and  _260
REMARK  105  A    between atoms: _259  and  _262
REMARK  106  A    between atoms: _262  and  _263
REMARK  107  A    between atoms: _266  and  _268
REMARK  108  A    between atoms: _268  and  _269
REMARK  109  A    between atoms: _268  and  _271
REMARK  110  A    between atoms: _271  and  _272
REMARK  111  A    between atoms: _272  and  _273
REMARK  112  A    between atoms: _273  and  _274
REMARK  113  A    between atoms: _283  and  _285
REMARK  114  A    between atoms: _285  and  _286
REMARK  115  A    between atoms: _285  and  _288
REMARK  116  A    between atoms: _288  and  _289
REMARK  117  A    between atoms: _292  and  _294
REMARK  118  A    between atoms: _294  and  _295
REMARK  119  A    between atoms: _294  and  _297
REMARK  120  A    between atoms: _297  and  _298
REMARK  121  A    between atoms: _298  and  _299
REMARK  122  A    between atoms: _299  and  _300
REMARK  123  A    between atoms: _300  and  _301
REMARK  124  A    between atoms: _305  and  _307
REMARK  125  A    between atoms: _307  and  _308
REMARK  126  A    between atoms: _307  and  _310
REMARK  127  A    between atoms: _310  and  _311
REMARK  128  A    between atoms: _314  and  _316
REMARK  129  A    between atoms: _316  and  _317
REMARK  130  A    between atoms: _316  and  _319
REMARK  131  A    between atoms: _319  and  _320
REMARK  132  A    between atoms: _320  and  _321
REMARK  133  A    between atoms: _326  and  _328
REMARK  134  A    between atoms: _328  and  _329
REMARK  135  A    between atoms: _328  and  _331
REMARK  136  A    between atoms: _331  and  _332
REMARK  137  A    between atoms: _335  and  _337
REMARK  138  A    between atoms: _337  and  _338
REMARK  139  A    between atoms: _337  and  _340
REMARK  140  A    between atoms: _340  and  _341
REMARK  141  A    between atoms: _346  and  _347
REMARK  142  A    between atoms: _349  and  _351
REMARK  143  A    between atoms: _351  and  _352
REMARK  144  A    between atoms: _351  and  _354
REMARK  145  A    between atoms: _354  and  _355
REMARK  146  A    between atoms: _358  and  _360
REMARK  147  A    between atoms: _360  and  _361
REMARK  148  A    between atoms: _360  and  _363
REMARK  149  A    between atoms: _365  and  _367
REMARK  150  A    between atoms: _367  and  _368
REMARK  151  A    between atoms: _371  and  _373
REMARK  152  A    between atoms: _373  and  _374
REMARK  153  A    between atoms: _373  and  _376
REMARK  154  A    between atoms: _376  and  _377
REMARK  155  A    between atoms: _380  and  _382
REMARK  156  A    between atoms: _382  and  _383
REMARK  157  A    between atoms: _386  and  _388
REMARK  158  A    between atoms: _388  and  _389
REMARK  159  A    between atoms: _388  and  _391
REMARK  160  A    between atoms: _391  and  _392
REMARK  161  A    between atoms: _392  and  _506
REMARK  162  A    between atoms: _393  and  _395
REMARK  163  A    between atoms: _395  and  _396
REMARK  164  A    between atoms: _395  and  _398
REMARK  165  A    between atoms: _398  and  _399
REMARK  166  A    between atoms: _399  and  _400
REMARK  167  A    between atoms: _400  and  _401
REMARK  168  A    between atoms: _401  and  _402
REMARK  169  A    between atoms: _406  and  _408
REMARK  170  A    between atoms: _408  and  _409
REMARK  171  A    between atoms: _411  and  _413
REMARK  172  A    between atoms: _413  and  _414
REMARK  173  A    between atoms: _413  and  _416
REMARK  174  A    between atoms: _416  and  _417
REMARK  175  A    between atoms: _420  and  _422
REMARK  176  A    between atoms: _422  and  _423
REMARK  177  A    between atoms: _422  and  _425
REMARK  178  A    between atoms: _425  and  _426
REMARK  179  A    between atoms: _428  and  _430
REMARK  180  A    between atoms: _430  and  _431
REMARK  181  A    between atoms: _433  and  _435
REMARK  182  A    between atoms: _435  and  _436
REMARK  183  A    between atoms: _438  and  _440
REMARK  184  A    between atoms: _440  and  _441
REMARK  185  A    between atoms: _440  and  _443
REMARK  186  A    between atoms: _443  and  _444
REMARK  187  A    between atoms: _447  and  _449
REMARK  188  A    between atoms: _449  and  _450
REMARK  189  A    between atoms: _449  and  _452
REMARK  190  A    between atoms: _452  and  _453
REMARK  191  A    between atoms: _456  and  _458
REMARK  192  A    between atoms: _458  and  _459
REMARK  193  A    between atoms: _458  and  _461
REMARK  194  A    between atoms: _461  and  _462
REMARK  195  A    between atoms: _464  and  _466
REMARK  196  A    between atoms: _466  and  _467
REMARK  197  A    between atoms: _466  and  _469
REMARK  198  A    between atoms: _469  and  _470
REMARK  199  A    between atoms: _480  and  _482
REMARK  200  A    between atoms: _482  and  _483
REMARK  201  A    between atoms: _485  and  _487
REMARK  202  A    between atoms: _487  and  _488
REMARK  203  A    between atoms: _487  and  _490
REMARK  204  A    between atoms: _490  and  _491
REMARK  205  A    between atoms: _491  and  _492
REMARK  206  A    between atoms: _495  and  _497
REMARK  207  A    between atoms: _497  and  _498
REMARK  208  A    between atoms: _500  and  _502
REMARK  209  A    between atoms: _502  and  _503
REMARK  210  A    between atoms: _502  and  _505
REMARK  211  A    between atoms: _505  and  _506
REMARK  212  A    between atoms: _507  and  _509
REMARK  213  A    between atoms: _509  and  _510
REMARK  214  A    between atoms: _513  and  _515
REMARK  215  A    between atoms: _515  and  _516
REMARK  216  A    between atoms: _515  and  _518
REMARK  217  A    between atoms: _518  and  _519
REMARK  218  A    between atoms: _519  and  _520
REMARK  219  A    between atoms: _525  and  _527
REMARK  220  A    between atoms: _527  and  _528
REMARK  221  A    between atoms: _527  and  _530
REMARK  222  A    between atoms: _530  and  _531
REMARK  223  A    between atoms: _531  and  _532
REMARK  224  A    between atoms: _532  and  _533
REMARK  225  A    between atoms: _543  and  _544
REMARK  226  A    between atoms: _549  and  _551
REMARK  227  A    between atoms: _551  and  _552
REMARK  228  A    between atoms: _554  and  _556
REMARK  229  A    between atoms: _556  and  _557
REMARK  230  A    between atoms: _556  and  _559
REMARK  231  A    between atoms: _562  and  _564
REMARK  232  A    between atoms: _564  and  _565
REMARK  233  A    between atoms: _564  and  _567
REMARK  234  A    between atoms: _567  and  _568
REMARK  235  A    between atoms: _573  and  _574
REMARK  236  A    between atoms: _576  and  _578
REMARK  237  A    between atoms: _578  and  _579
REMARK  238  A    between atoms: _578  and  _581
REMARK  239  A    between atoms: _581  and  _582
REMARK                            x       y       z     vdW  Elec       q    Type
REMARK                         _______ _______ _______ _____ _____    ______ ____
ROOT
ATOM      1  O   HOH     1      51.650  28.211   9.492  0.00  0.00    +0.000 OA
ENDROOT
TORSDOF 0
REMARK  Name = ../refined-set-2016/4crf/4crf_pocket.pdb
REMARK  239 active torsions:
REMARK  status: ('A' for Active; 'I' for Inactive)
REMARK    1  A    between atoms: _1  and  _5
REMARK    2  A    between atoms: _5  and  _6
REMARK    3  A    between atoms: _5  and  _8
REMARK    4  A    between atoms: _8  and  _9
REMARK    5  A    between atoms: _12  and  _14
REMARK    6  A    between atoms: _14  and  _15
REMARK    7  A    between atoms: _14  and  _17
REMARK    8  A    between atoms: _20  and  _22
REMARK    9  A    between atoms: _22  and  _23
REMARK   10  A    between atoms: _22  and  _25
REMARK   11  A    between atoms: _25  and  _26
REMARK   12  A    between atoms: _29  and  _31
REMARK   13  A    between atoms: _31  and  _32
REMARK   14  A    between atoms: _31  and  _34
REMARK   15  A    between atoms: _34  and  _35
REMARK   16  A    between atoms: _38  and  _40
REMARK   17  A    between atoms: _40  and  _41
REMARK   18  A    between atoms: _40  and  _43
REMARK   19  A    between atoms: _43  and  _44
REMARK   20  A    between atoms: _47  and  _49
REMARK   21  A    between atoms: _49  and  _50
REMARK   22  A    between atoms: _49  and  _52
REMARK   23  A    between atoms: _52  and  _53
REMARK   24  A    between atoms: _56  and  _58
REMARK   25  A    between atoms: _58  and  _59
REMARK   26  A    between atoms: _58  and  _61
REMARK   27  A    between atoms: _61  and  _62
REMARK   28  A    between atoms: _62  and  _63
REMARK   29  A    between atoms: _68  and  _70
REMARK   30  A    between atoms: _70  and  _71
REMARK   31  A    between atoms: _70  and  _73
REMARK   32  A    between atoms: _73  and  _74
REMARK   33  A    between atoms: _74  and  _75
REMARK   34  A    between atoms: _75  and  _76
REMARK   35  A    between atoms: _85  and  _87
REMARK   36  A    between atoms: _87  and  _88
REMARK   37  A    between atoms: _87  and  _90
REMARK   38  A    between atoms: _90  and  _91
REMARK   39  A    between atoms: _96  and  _98
REMARK   40  A    between atoms: _98  and  _99
REMARK   41  A    between atoms: _98  and  _101
REMARK   42  A    between atoms: _101  and  _102
REMARK   43  A    between atoms: _105  and  _107
REMARK   44  A    between atoms: _107  and  _108
REMARK   45  A    between atoms: _107  and  _110
REMARK   46  A    between atoms: _110  and  _111
REMARK   47  A    between atoms: _111  and  _146
REMARK   48  A    between atoms: _112  and  _114
REMARK   49  A    between atoms: _114  and  _115
REMARK   50  A    between atoms: _117  and  _119
REMARK   51  A    between atoms: _119  and  _120
REMARK   52  A    between atoms: _123  and  _125
REMARK   53  A    between atoms: _125  and  _126
REMARK   54  A    between atoms: _129  and  _131
REMARK   55  A    between atoms: _131  and  _132
REMARK   56  A    between atoms: _131  and  _134
REMARK   57  A    between atoms: _134  and  _135
REMARK   58  A    between atoms: _140  and  _142
REMARK   59  A    between atoms: _142  and  _143
REMARK   60  A    between atoms: _142  and  _145
REMARK   61  A    between atoms: _145  and  _146
REMARK   62  A    between atoms: _147  and  _149
REMARK   63  A    between atoms: _149  and  _150
REMARK   64  A    between atoms: _149  and  _152
REMARK   65  A    between atoms: _152  and  _153
REMARK   66  A    between atoms: _159  and  _161
REMARK   67  A    between atoms: _161  and  _162
REMARK   68  A    between atoms: _161  and  _164
REMARK   69  A    between atoms: _164  and  _165
REMARK   70  A    between atoms: _170  and  _171
REMARK   71  A    between atoms: _173  and  _175
REMARK   72  A    between atoms: _175  and  _176
REMARK   73  A    between atoms: _178  and  _180
REMARK   74  A    between atoms: _180  and  _181
REMARK   75  A    between atoms: _180  and  _183
REMARK   76  A    between atoms: _186  and  _188
REMARK   77  A    between atoms: _188  and  _189
REMARK   78  A    between atoms: _192  and  _194
REMARK   79  A    between atoms: _194  and  _195
REMARK   80  A    between atoms: _194  and  _197
REMARK   81  A    between atoms: _197  and  _198
REMARK   82  A    between atoms: _201  and  _203
REMARK   83  A    between atoms: _203  and  _204
REMARK   84  A    between atoms: _203  and  _206
REMARK   85  A    between atoms: _209  and  _211
REMARK   86  A    between atoms: _211  and  _212
REMARK   87  A    between atoms: _211  and  _214
REMARK   88  A    between atoms: _214  and  _215
REMARK   89  A    between atoms: _225  and  _227
REMARK   90  A    between atoms: _227  and  _228
REMARK   91  A    between atoms: _230  and  _232
REMARK   92  A    between atoms: _232  and  _233
REMARK   93  A    between atoms: _232  and  _235
REMARK   94  A    between atoms: _235  and  _236
REMARK   95  A    between atoms: _241  and  _242
REMARK   96  A    between atoms: _244  and  _246
REMARK   97  A    between atoms: _246  and  _247
REMARK   98  A    between atoms: _246  and  _249
REMARK   99  A    between atoms: _249  and  _250
REMARK  100  A    between atoms: _250  and  _251
REMARK  101  A    between atoms: _251  and  _252
REMARK  102  A    between atoms: _252  and  _253
REMARK  103  A    between atoms: _257  and  _259
REMARK  104  A    between atoms: _259  and  _260
REMARK  105  A    between atoms: _259  and  _262
REMARK  106  A    between atoms: _262  and  _263
REMARK  107  A    between atoms: _266  and  _268
REMARK  108  A    between atoms: _268  and  _269
REMARK  109  A    between atoms: _268  and  _271
REMARK  110  A    between atoms: _271  and  _272
REMARK  111  A    between atoms: _272  and  _273
REMARK  112  A    between atoms: _273  and  _274
REMARK  113  A    between atoms: _283  and  _285
REMARK  114  A    between atoms: _285  and  _286
REMARK  115  A    between atoms: _285  and  _288
REMARK  116  A    between atoms: _288  and  _289
REMARK  117  A    between atoms: _292  and  _294
REMARK  118  A    between atoms: _294  and  _295
REMARK  119  A    between atoms: _294  and  _297
REMARK  120  A    between atoms: _297  and  _298
REMARK  121  A    between atoms: _298  and  _299
REMARK  122  A    between atoms: _299  and  _300
REMARK  123  A    between atoms: _300  and  _301
REMARK  124  A    between atoms: _305  and  _307
REMARK  125  A    between atoms: _307  and  _308
REMARK  126  A    between atoms: _307  and  _310
REMARK  127  A    between atoms: _310  and  _311
REMARK  128  A    between atoms: _314  and  _316
REMARK  129  A    between atoms: _316  and  _317
REMARK  130  A    between atoms: _316  and  _319
REMARK  131  A    between atoms: _319  and  _320
REMARK  132  A    between atoms: _320  and  _321
REMARK  133  A    between atoms: _326  and  _328
REMARK  134  A    between atoms: _328  and  _329
REMARK  135  A    between atoms: _328  and  _331
REMARK  136  A    between atoms: _331  and  _332
REMARK  137  A    between atoms: _335  and  _337
REMARK  138  A    between atoms: _337  and  _338
REMARK  139  A    between atoms: _337  and  _340
REMARK  140  A    between atoms: _340  and  _341
REMARK  141  A    between atoms: _346  and  _347
REMARK  142  A    between atoms: _349  and  _351
REMARK  143  A    between atoms: _351  and  _352
REMARK  144  A    between atoms: _351  and  _354
REMARK  145  A    between atoms: _354  and  _355
REMARK  146  A    between atoms: _358  and  _360
REMARK  147  A    between atoms: _360  and  _361
REMARK  148  A    between atoms: _360  and  _363
REMARK  149  A    between atoms: _365  and  _367
REMARK  150  A    between atoms: _367  and  _368
REMARK  151  A    between atoms: _371  and  _373
REMARK  152  A    between atoms: _373  and  _374
REMARK  153  A    between atoms: _373  and  _376
REMARK  154  A    between atoms: _376  and  _377
REMARK  155  A    between atoms: _380  and  _382
REMARK  156  A    between atoms: _382  and  _383
REMARK  157  A    between atoms: _386  and  _388
REMARK  158  A    between atoms: _388  and  _389
REMARK  159  A    between atoms: _388  and  _391
REMARK  160  A    between atoms: _391  and  _392
REMARK  161  A    between atoms: _392  and  _506
REMARK  162  A    between atoms: _393  and  _395
REMARK  163  A    between atoms: _395  and  _396
REMARK  164  A    between atoms: _395  and  _398
REMARK  165  A    between atoms: _398  and  _399
REMARK  166  A    between atoms: _399  and  _400
REMARK  167  A    between atoms: _400  and  _401
REMARK  168  A    between atoms: _401  and  _402
REMARK  169  A    between atoms: _406  and  _408
REMARK  170  A    between atoms: _408  and  _409
REMARK  171  A    between atoms: _411  and  _413
REMARK  172  A    between atoms: _413  and  _414
REMARK  173  A    between atoms: _413  and  _416
REMARK  174  A    between atoms: _416  and  _417
REMARK  175  A    between atoms: _420  and  _422
REMARK  176  A    between atoms: _422  and  _423
REMARK  177  A    between atoms: _422  and  _425
REMARK  178  A    between atoms: _425  and  _426
REMARK  179  A    between atoms: _428  and  _430
REMARK  180  A    between atoms: _430  and  _431
REMARK  181  A    between atoms: _433  and  _435
REMARK  182  A    between atoms: _435  and  _436
REMARK  183  A    between atoms: _438  and  _440
REMARK  184  A    between atoms: _440  and  _441
REMARK  185  A    between atoms: _440  and  _443
REMARK  186  A    between atoms: _443  and  _444
REMARK  187  A    between atoms: _447  and  _449
REMARK  188  A    between atoms: _449  and  _450
REMARK  189  A    between atoms: _449  and  _452
REMARK  190  A    between atoms: _452  and  _453
REMARK  191  A    between atoms: _456  and  _458
REMARK  192  A    between atoms: _458  and  _459
REMARK  193  A    between atoms: _458  and  _461
REMARK  194  A    between atoms: _461  and  _462
REMARK  195  A    between atoms: _464  and  _466
REMARK  196  A    between atoms: _466  and  _467
REMARK  197  A    between atoms: _466  and  _469
REMARK  198  A    between atoms: _469  and  _470
REMARK  199  A    between atoms: _480  and  _482
REMARK  200  A    between atoms: _482  and  _483
REMARK  201  A    between atoms: _485  and  _487
REMARK  202  A    between atoms: _487  and  _488
REMARK  203  A    between atoms: _487  and  _490
REMARK  204  A    between atoms: _490  and  _491
REMARK  205  A    between atoms: _491  and  _492
REMARK  206  A    between atoms: _495  and  _497
REMARK  207  A    between atoms: _497  and  _498
REMARK  208  A    between atoms: _500  and  _502
REMARK  209  A    between atoms: _502  and  _503
REMARK  210  A    between atoms: _502  and  _505
REMARK  211  A    between atoms: _505  and  _506
REMARK  212  A    between atoms: _507  and  _509
REMARK  213  A    between atoms: _509  and  _510
REMARK  214  A    between atoms: _513  and  _515
REMARK  215  A    between atoms: _515  and  _516
REMARK  216  A    between atoms: _515  and  _518
REMARK  217  A    between atoms: _518  and  _519
REMARK  218  A    between atoms: _519  and  _520
REMARK  219  A    between atoms: _525  and  _527
REMARK  220  A    between atoms: _527  and  _528
REMARK  221  A    between atoms: _527  and  _530
REMARK  222  A    between atoms: _530  and  _531
REMARK  223  A    between atoms: _531  and  _532
REMARK  224  A    between atoms: _532  and  _533
REMARK  225  A    between atoms: _543  and  _544
REMARK  226  A    between atoms: _549  and  _551
REMARK  227  A    between atoms: _551  and  _552
REMARK  228  A    between atoms: _554  and  _556
REMARK  229  A    between atoms: _556  and  _557
REMARK  230  A    between atoms: _556  and  _559
REMARK  231  A    between atoms: _562  and  _564
REMARK  232  A    between atoms: _564  and  _565
REMARK  233  A    between atoms: _564  and  _567
REMARK  234  A    between atoms: _567  and  _568
REMARK  235  A    between atoms: _573  and  _574
REMARK  236  A    between atoms: _576  and  _578
REMARK  237  A    between atoms: _578  and  _579
REMARK  238  A    between atoms: _578  and  _581
REMARK  239  A    between atoms: _581  and  _582
REMARK                            x       y       z     vdW  Elec       q    Type
REMARK                         _______ _______ _______ _____ _____    ______ ____
ROOT
ATOM      1  O   HOH     1      54.846  28.357  16.526  0.00  0.00    +0.000 OA
ENDROOT
TORSDOF 0
REMARK  Name = ../refined-set-2016/4crf/4crf_pocket.pdb
REMARK  239 active torsions:
REMARK  status: ('A' for Active; 'I' for Inactive)
REMARK    1  A    between atoms: _1  and  _5
REMARK    2  A    between atoms: _5  and  _6
REMARK    3  A    between atoms: _5  and  _8
REMARK    4  A    between atoms: _8  and  _9
REMARK    5  A    between atoms: _12  and  _14
REMARK    6  A    between atoms: _14  and  _15
REMARK    7  A    between atoms: _14  and  _17
REMARK    8  A    between atoms: _20  and  _22
REMARK    9  A    between atoms: _22  and  _23
REMARK   10  A    between atoms: _22  and  _25
REMARK   11  A    between atoms: _25  and  _26
REMARK   12  A    between atoms: _29  and  _31
REMARK   13  A    between atoms: _31  and  _32
REMARK   14  A    between atoms: _31  and  _34
REMARK   15  A    between atoms: _34  and  _35
REMARK   16  A    between atoms: _38  and  _40
REMARK   17  A    between atoms: _40  and  _41
REMARK   18  A    between atoms: _40  and  _43
REMARK   19  A    between atoms: _43  and  _44
REMARK   20  A    between atoms: _47  and  _49
REMARK   21  A    between atoms: _49  and  _50
REMARK   22  A    between atoms: _49  and  _52
REMARK   23  A    between atoms: _52  and  _53
REMARK   24  A    between atoms: _56  and  _58
REMARK   25  A    between atoms: _58  and  _59
REMARK   26  A    between atoms: _58  and  _61
REMARK   27  A    between atoms: _61  and  _62
REMARK   28  A    between atoms: _62  and  _63
REMARK   29  A    between atoms: _68  and  _70
REMARK   30  A    between atoms: _70  and  _71
REMARK   31  A    between atoms: _70  and  _73
REMARK   32  A    between atoms: _73  and  _74
REMARK   33  A    between atoms: _74  and  _75
REMARK   34  A    between atoms: _75  and  _76
REMARK   35  A    between atoms: _85  and  _87
REMARK   36  A    between atoms: _87  and  _88
REMARK   37  A    between atoms: _87  and  _90
REMARK   38  A    between atoms: _90  and  _91
REMARK   39  A    between atoms: _96  and  _98
REMARK   40  A    between atoms: _98  and  _99
REMARK   41  A    between atoms: _98  and  _101
REMARK   42  A    between atoms: _101  and  _102
REMARK   43  A    between atoms: _105  and  _107
REMARK   44  A    between atoms: _107  and  _108
REMARK   45  A    between atoms: _107  and  _110
REMARK   46  A    between atoms: _110  and  _111
REMARK   47  A    between atoms: _111  and  _146
REMARK   48  A    between atoms: _112  and  _114
REMARK   49  A    between atoms: _114  and  _115
REMARK   50  A    between atoms: _117  and  _119
REMARK   51  A    between atoms: _119  and  _120
REMARK   52  A    between atoms: _123  and  _125
REMARK   53  A    between atoms: _125  and  _126
REMARK   54  A    between atoms: _129  and  _131
REMARK   55  A    between atoms: _131  and  _132
REMARK   56  A    between atoms: _131  and  _134
REMARK   57  A    between atoms: _134  and  _135
REMARK   58  A    between atoms: _140  and  _142
REMARK   59  A    between atoms: _142  and  _143
REMARK   60  A    between atoms: _142  and  _145
REMARK   61  A    between atoms: _145  and  _146
REMARK   62  A    between atoms: _147  and  _149
REMARK   63  A    between atoms: _149  and  _150
REMARK   64  A    between atoms: _149  and  _152
REMARK   65  A    between atoms: _152  and  _153
REMARK   66  A    between atoms: _159  and  _161
REMARK   67  A    between atoms: _161  and  _162
REMARK   68  A    between atoms: _161  and  _164
REMARK   69  A    between atoms: _164  and  _165
REMARK   70  A    between atoms: _170  and  _171
REMARK   71  A    between atoms: _173  and  _175
REMARK   72  A    between atoms: _175  and  _176
REMARK   73  A    between atoms: _178  and  _180
REMARK   74  A    between atoms: _180  and  _181
REMARK   75  A    between atoms: _180  and  _183
REMARK   76  A    between atoms: _186  and  _188
REMARK   77  A    between atoms: _188  and  _189
REMARK   78  A    between atoms: _192  and  _194
REMARK   79  A    between atoms: _194  and  _195
REMARK   80  A    between atoms: _194  and  _197
REMARK   81  A    between atoms: _197  and  _198
REMARK   82  A    between atoms: _201  and  _203
REMARK   83  A    between atoms: _203  and  _204
REMARK   84  A    between atoms: _203  and  _206
REMARK   85  A    between atoms: _209  and  _211
REMARK   86  A    between atoms: _211  and  _212
REMARK   87  A    between atoms: _211  and  _214
REMARK   88  A    between atoms: _214  and  _215
REMARK   89  A    between atoms: _225  and  _227
REMARK   90  A    between atoms: _227  and  _228
REMARK   91  A    between atoms: _230  and  _232
REMARK   92  A    between atoms: _232  and  _233
REMARK   93  A    between atoms: _232  and  _235
REMARK   94  A    between atoms: _235  and  _236
REMARK   95  A    between atoms: _241  and  _242
REMARK   96  A    between atoms: _244  and  _246
REMARK   97  A    between atoms: _246  and  _247
REMARK   98  A    between atoms: _246  and  _249
REMARK   99  A    between atoms: _249  and  _250
REMARK  100  A    between atoms: _250  and  _251
REMARK  101  A    between atoms: _251  and  _252
REMARK  102  A    between atoms: _252  and  _253
REMARK  103  A    between atoms: _257  and  _259
REMARK  104  A    between atoms: _259  and  _260
REMARK  105  A    between atoms: _259  and  _262
REMARK  106  A    between atoms: _262  and  _263
REMARK  107  A    between atoms: _266  and  _268
REMARK  108  A    between atoms: _268  and  _269
REMARK  109  A    between atoms: _268  and  _271
REMARK  110  A    between atoms: _271  and  _272
REMARK  111  A    between atoms: _272  and  _273
REMARK  112  A    between atoms: _273  and  _274
REMARK  113  A    between atoms: _283  and  _285
REMARK  114  A    between atoms: _285  and  _286
REMARK  115  A    between atoms: _285  and  _288
REMARK  116  A    between atoms: _288  and  _289
REMARK  117  A    between atoms: _292  and  _294
REMARK  118  A    between atoms: _294  and  _295
REMARK  119  A    between atoms: _294  and  _297
REMARK  120  A    between atoms: _297  and  _298
REMARK  121  A    between atoms: _298  and  _299
REMARK  122  A    between atoms: _299  and  _300
REMARK  123  A    between atoms: _300  and  _301
REMARK  124  A    between atoms: _305  and  _307
REMARK  125  A    between atoms: _307  and  _308
REMARK  126  A    between atoms: _307  and  _310
REMARK  127  A    between atoms: _310  and  _311
REMARK  128  A    between atoms: _314  and  _316
REMARK  129  A    between atoms: _316  and  _317
REMARK  130  A    between atoms: _316  and  _319
REMARK  131  A    between atoms: _319  and  _320
REMARK  132  A    between atoms: _320  and  _321
REMARK  133  A    between atoms: _326  and  _328
REMARK  134  A    between atoms: _328  and  _329
REMARK  135  A    between atoms: _328  and  _331
REMARK  136  A    between atoms: _331  and  _332
REMARK  137  A    between atoms: _335  and  _337
REMARK  138  A    between atoms: _337  and  _338
REMARK  139  A    between atoms: _337  and  _340
REMARK  140  A    between atoms: _340  and  _341
REMARK  141  A    between atoms: _346  and  _347
REMARK  142  A    between atoms: _349  and  _351
REMARK  143  A    between atoms: _351  and  _352
REMARK  144  A    between atoms: _351  and  _354
REMARK  145  A    between atoms: _354  and  _355
REMARK  146  A    between atoms: _358  and  _360
REMARK  147  A    between atoms: _360  and  _361
REMARK  148  A    between atoms: _360  and  _363
REMARK  149  A    between atoms: _365  and  _367
REMARK  150  A    between atoms: _367  and  _368
REMARK  151  A    between atoms: _371  and  _373
REMARK  152  A    between atoms: _373  and  _374
REMARK  153  A    between atoms: _373  and  _376
REMARK  154  A    between atoms: _376  and  _377
REMARK  155  A    between atoms: _380  and  _382
REMARK  156  A    between atoms: _382  and  _383
REMARK  157  A    between atoms: _386  and  _388
REMARK  158  A    between atoms: _388  and  _389
REMARK  159  A    between atoms: _388  and  _391
REMARK  160  A    between atoms: _391  and  _392
REMARK  161  A    between atoms: _392  and  _506
REMARK  162  A    between atoms: _393  and  _395
REMARK  163  A    between atoms: _395  and  _396
REMARK  164  A    between atoms: _395  and  _398
REMARK  165  A    between atoms: _398  and  _399
REMARK  166  A    between atoms: _399  and  _400
REMARK  167  A    between atoms: _400  and  _401
REMARK  168  A    between atoms: _401  and  _402
REMARK  169  A    between atoms: _406  and  _408
REMARK  170  A    between atoms: _408  and  _409
REMARK  171  A    between atoms: _411  and  _413
REMARK  172  A    between atoms: _413  and  _414
REMARK  173  A    between atoms: _413  and  _416
REMARK  174  A    between atoms: _416  and  _417
REMARK  175  A    between atoms: _420  and  _422
REMARK  176  A    between atoms: _422  and  _423
REMARK  177  A    between atoms: _422  and  _425
REMARK  178  A    between atoms: _425  and  _426
REMARK  179  A    between atoms: _428  and  _430
REMARK  180  A    between atoms: _430  and  _431
REMARK  181  A    between atoms: _433  and  _435
REMARK  182  A    between atoms: _435  and  _436
REMARK  183  A    between atoms: _438  and  _440
REMARK  184  A    between atoms: _440  and  _441
REMARK  185  A    between atoms: _440  and  _443
REMARK  186  A    between atoms: _443  and  _444
REMARK  187  A    between atoms: _447  and  _449
REMARK  188  A    between atoms: _449  and  _450
REMARK  189  A    between atoms: _449  and  _452
REMARK  190  A    between atoms: _452  and  _453
REMARK  191  A    between atoms: _456  and  _458
REMARK  192  A    between atoms: _458  and  _459
REMARK  193  A    between atoms: _458  and  _461
REMARK  194  A    between atoms: _461  and  _462
REMARK  195  A    between atoms: _464  and  _466
REMARK  196  A    between atoms: _466  and  _467
REMARK  197  A    between atoms: _466  and  _469
REMARK  198  A    between atoms: _469  and  _470
REMARK  199  A    between atoms: _480  and  _482
REMARK  200  A    between atoms: _482  and  _483
REMARK  201  A    between atoms: _485  and  _487
REMARK  202  A    between atoms: _487  and  _488
REMARK  203  A    between atoms: _487  and  _490
REMARK  204  A    between atoms: _490  and  _491
REMARK  205  A    between atoms: _491  and  _492
REMARK  206  A    between atoms: _495  and  _497
REMARK  207  A    between atoms: _497  and  _498
REMARK  208  A    between atoms: _500  and  _502
REMARK  209  A    between atoms: _502  and  _503
REMARK  210  A    between atoms: _502  and  _505
REMARK  211  A    between atoms: _505  and  _506
REMARK  212  A    between atoms: _507  and  _509
REMARK  213  A    between atoms: _509  and  _510
REMARK  214  A    between atoms: _513  and  _515
REMARK  215  A    between atoms: _515  and  _516
REMARK  216  A    between atoms: _515  and  _518
REMARK  217  A    between atoms: _518  and  _519
REMARK  218  A    between atoms: _519  and  _520
REMARK  219  A    between atoms: _525  and  _527
REMARK  220  A    between atoms: _527  and  _528
REMARK  221  A    between atoms: _527  and  _530
REMARK  222  A    between atoms: _530  and  _531
REMARK  223  A    between atoms: _531  and  _532
REMARK  224  A    between atoms: _532  and  _533
REMARK  225  A    between atoms: _543  and  _544
REMARK  226  A    between atoms: _549  and  _551
REMARK  227  A    between atoms: _551  and  _552
REMARK  228  A    between atoms: _554  and  _556
REMARK  229  A    between atoms: _556  and  _557
REMARK  230  A    between atoms: _556  and  _559
REMARK  231  A    between atoms: _562  and  _564
REMARK  232  A    between atoms: _564  and  _565
REMARK  233  A    between atoms: _564  and  _567
REMARK  234  A    between atoms: _567  and  _568
REMARK  235  A    between atoms: _573  and  _574
REMARK  236  A    between atoms: _576  and  _578
REMARK  237  A    between atoms: _578  and  _579
REMARK  238  A    between atoms: _578  and  _581
REMARK  239  A    between atoms: _581  and  _582
REMARK                            x       y       z     vdW  Elec       q    Type
REMARK                         _______ _______ _______ _____ _____    ______ ____
ROOT
ATOM      1  O   HOH     1      56.181  33.220  14.235  0.00  0.00    +0.000 OA
ENDROOT
TORSDOF 0
REMARK  Name = ../refined-set-2016/4crf/4crf_pocket.pdb
REMARK  239 active torsions:
REMARK  status: ('A' for Active; 'I' for Inactive)
REMARK    1  A    between atoms: _1  and  _5
REMARK    2  A    between atoms: _5  and  _6
REMARK    3  A    between atoms: _5  and  _8
REMARK    4  A    between atoms: _8  and  _9
REMARK    5  A    between atoms: _12  and  _14
REMARK    6  A    between atoms: _14  and  _15
REMARK    7  A    between atoms: _14  and  _17
REMARK    8  A    between atoms: _20  and  _22
REMARK    9  A    between atoms: _22  and  _23
REMARK   10  A    between atoms: _22  and  _25
REMARK   11  A    between atoms: _25  and  _26
REMARK   12  A    between atoms: _29  and  _31
REMARK   13  A    between atoms: _31  and  _32
REMARK   14  A    between atoms: _31  and  _34
REMARK   15  A    between atoms: _34  and  _35
REMARK   16  A    between atoms: _38  and  _40
REMARK   17  A    between atoms: _40  and  _41
REMARK   18  A    between atoms: _40  and  _43
REMARK   19  A    between atoms: _43  and  _44
REMARK   20  A    between atoms: _47  and  _49
REMARK   21  A    between atoms: _49  and  _50
REMARK   22  A    between atoms: _49  and  _52
REMARK   23  A    between atoms: _52  and  _53
REMARK   24  A    between atoms: _56  and  _58
REMARK   25  A    between atoms: _58  and  _59
REMARK   26  A    between atoms: _58  and  _61
REMARK   27  A    between atoms: _61  and  _62
REMARK   28  A    between atoms: _62  and  _63
REMARK   29  A    between atoms: _68  and  _70
REMARK   30  A    between atoms: _70  and  _71
REMARK   31  A    between atoms: _70  and  _73
REMARK   32  A    between atoms: _73  and  _74
REMARK   33  A    between atoms: _74  and  _75
REMARK   34  A    between atoms: _75  and  _76
REMARK   35  A    between atoms: _85  and  _87
REMARK   36  A    between atoms: _87  and  _88
REMARK   37  A    between atoms: _87  and  _90
REMARK   38  A    between atoms: _90  and  _91
REMARK   39  A    between atoms: _96  and  _98
REMARK   40  A    between atoms: _98  and  _99
REMARK   41  A    between atoms: _98  and  _101
REMARK   42  A    between atoms: _101  and  _102
REMARK   43  A    between atoms: _105  and  _107
REMARK   44  A    between atoms: _107  and  _108
REMARK   45  A    between atoms: _107  and  _110
REMARK   46  A    between atoms: _110  and  _111
REMARK   47  A    between atoms: _111  and  _146
REMARK   48  A    between atoms: _112  and  _114
REMARK   49  A    between atoms: _114  and  _115
REMARK   50  A    between atoms: _117  and  _119
REMARK   51  A    between atoms: _119  and  _120
REMARK   52  A    between atoms: _123  and  _125
REMARK   53  A    between atoms: _125  and  _126
REMARK   54  A    between atoms: _129  and  _131
REMARK   55  A    between atoms: _131  and  _132
REMARK   56  A    between atoms: _131  and  _134
REMARK   57  A    between atoms: _134  and  _135
REMARK   58  A    between atoms: _140  and  _142
REMARK   59  A    between atoms: _142  and  _143
REMARK   60  A    between atoms: _142  and  _145
REMARK   61  A    between atoms: _145  and  _146
REMARK   62  A    between atoms: _147  and  _149
REMARK   63  A    between atoms: _149  and  _150
REMARK   64  A    between atoms: _149  and  _152
REMARK   65  A    between atoms: _152  and  _153
REMARK   66  A    between atoms: _159  and  _161
REMARK   67  A    between atoms: _161  and  _162
REMARK   68  A    between atoms: _161  and  _164
REMARK   69  A    between atoms: _164  and  _165
REMARK   70  A    between atoms: _170  and  _171
REMARK   71  A    between atoms: _173  and  _175
REMARK   72  A    between atoms: _175  and  _176
REMARK   73  A    between atoms: _178  and  _180
REMARK   74  A    between atoms: _180  and  _181
REMARK   75  A    between atoms: _180  and  _183
REMARK   76  A    between atoms: _186  and  _188
REMARK   77  A    between atoms: _188  and  _189
REMARK   78  A    between atoms: _192  and  _194
REMARK   79  A    between atoms: _194  and  _195
REMARK   80  A    between atoms: _194  and  _197
REMARK   81  A    between atoms: _197  and  _198
REMARK   82  A    between atoms: _201  and  _203
REMARK   83  A    between atoms: _203  and  _204
REMARK   84  A    between atoms: _203  and  _206
REMARK   85  A    between atoms: _209  and  _211
REMARK   86  A    between atoms: _211  and  _212
REMARK   87  A    between atoms: _211  and  _214
REMARK   88  A    between atoms: _214  and  _215
REMARK   89  A    between atoms: _225  and  _227
REMARK   90  A    between atoms: _227  and  _228
REMARK   91  A    between atoms: _230  and  _232
REMARK   92  A    between atoms: _232  and  _233
REMARK   93  A    between atoms: _232  and  _235
REMARK   94  A    between atoms: _235  and  _236
REMARK   95  A    between atoms: _241  and  _242
REMARK   96  A    between atoms: _244  and  _246
REMARK   97  A    between atoms: _246  and  _247
REMARK   98  A    between atoms: _246  and  _249
REMARK   99  A    between atoms: _249  and  _250
REMARK  100  A    between atoms: _250  and  _251
REMARK  101  A    between atoms: _251  and  _252
REMARK  102  A    between atoms: _252  and  _253
REMARK  103  A    between atoms: _257  and  _259
REMARK  104  A    between atoms: _259  and  _260
REMARK  105  A    between atoms: _259  and  _262
REMARK  106  A    between atoms: _262  and  _263
REMARK  107  A    between atoms: _266  and  _268
REMARK  108  A    between atoms: _268  and  _269
REMARK  109  A    between atoms: _268  and  _271
REMARK  110  A    between atoms: _271  and  _272
REMARK  111  A    between atoms: _272  and  _273
REMARK  112  A    between atoms: _273  and  _274
REMARK  113  A    between atoms: _283  and  _285
REMARK  114  A    between atoms: _285  and  _286
REMARK  115  A    between atoms: _285  and  _288
REMARK  116  A    between atoms: _288  and  _289
REMARK  117  A    between atoms: _292  and  _294
REMARK  118  A    between atoms: _294  and  _295
REMARK  119  A    between atoms: _294  and  _297
REMARK  120  A    between atoms: _297  and  _298
REMARK  121  A    between atoms: _298  and  _299
REMARK  122  A    between atoms: _299  and  _300
REMARK  123  A    between atoms: _300  and  _301
REMARK  124  A    between atoms: _305  and  _307
REMARK  125  A    between atoms: _307  and  _308
REMARK  126  A    between atoms: _307  and  _310
REMARK  127  A    between atoms: _310  and  _311
REMARK  128  A    between atoms: _314  and  _316
REMARK  129  A    between atoms: _316  and  _317
REMARK  130  A    between atoms: _316  and  _319
REMARK  131  A    between atoms: _319  and  _320
REMARK  132  A    between atoms: _320  and  _321
REMARK  133  A    between atoms: _326  and  _328
REMARK  134  A    between atoms: _328  and  _329
REMARK  135  A    between atoms: _328  and  _331
REMARK  136  A    between atoms: _331  and  _332
REMARK  137  A    between atoms: _335  and  _337
REMARK  138  A    between atoms: _337  and  _338
REMARK  139  A    between atoms: _337  and  _340
REMARK  140  A    between atoms: _340  and  _341
REMARK  141  A    between atoms: _346  and  _347
REMARK  142  A    between atoms: _349  and  _351
REMARK  143  A    between atoms: _351  and  _352
REMARK  144  A    between atoms: _351  and  _354
REMARK  145  A    between atoms: _354  and  _355
REMARK  146  A    between atoms: _358  and  _360
REMARK  147  A    between atoms: _360  and  _361
REMARK  148  A    between atoms: _360  and  _363
REMARK  149  A    between atoms: _365  and  _367
REMARK  150  A    between atoms: _367  and  _368
REMARK  151  A    between atoms: _371  and  _373
REMARK  152  A    between atoms: _373  and  _374
REMARK  153  A    between atoms: _373  and  _376
REMARK  154  A    between atoms: _376  and  _377
REMARK  155  A    between atoms: _380  and  _382
REMARK  156  A    between atoms: _382  and  _383
REMARK  157  A    between atoms: _386  and  _388
REMARK  158  A    between atoms: _388  and  _389
REMARK  159  A    between atoms: _388  and  _391
REMARK  160  A    between atoms: _391  and  _392
REMARK  161  A    between atoms: _392  and  _506
REMARK  162  A    between atoms: _393  and  _395
REMARK  163  A    between atoms: _395  and  _396
REMARK  164  A    between atoms: _395  and  _398
REMARK  165  A    between atoms: _398  and  _399
REMARK  166  A    between atoms: _399  and  _400
REMARK  167  A    between atoms: _400  and  _401
REMARK  168  A    between atoms: _401  and  _402
REMARK  169  A    between atoms: _406  and  _408
REMARK  170  A    between atoms: _408  and  _409
REMARK  171  A    between atoms: _411  and  _413
REMARK  172  A    between atoms: _413  and  _414
REMARK  173  A    between atoms: _413  and  _416
REMARK  174  A    between atoms: _416  and  _417
REMARK  175  A    between atoms: _420  and  _422
REMARK  176  A    between atoms: _422  and  _423
REMARK  177  A    between atoms: _422  and  _425
REMARK  178  A    between atoms: _425  and  _426
REMARK  179  A    between atoms: _428  and  _430
REMARK  180  A    between atoms: _430  and  _431
REMARK  181  A    between atoms: _433  and  _435
REMARK  182  A    between atoms: _435  and  _436
REMARK  183  A    between atoms: _438  and  _440
REMARK  184  A    between atoms: _440  and  _441
REMARK  185  A    between atoms: _440  and  _443
REMARK  186  A    between atoms: _443  and  _444
REMARK  187  A    between atoms: _447  and  _449
REMARK  188  A    between atoms: _449  and  _450
REMARK  189  A    between atoms: _449  and  _452
REMARK  190  A    between atoms: _452  and  _453
REMARK  191  A    between atoms: _456  and  _458
REMARK  192  A    between atoms: _458  and  _459
REMARK  193  A    between atoms: _458  and  _461
REMARK  194  A    between atoms: _461  and  _462
REMARK  195  A    between atoms: _464  and  _466
REMARK  196  A    between atoms: _466  and  _467
REMARK  197  A    between atoms: _466  and  _469
REMARK  198  A    between atoms: _469  and  _470
REMARK  199  A    between atoms: _480  and  _482
REMARK  200  A    between atoms: _482  and  _483
REMARK  201  A    between atoms: _485  and  _487
REMARK  202  A    between atoms: _487  and  _488
REMARK  203  A    between atoms: _487  and  _490
REMARK  204  A    between atoms: _490  and  _491
REMARK  205  A    between atoms: _491  and  _492
REMARK  206  A    between atoms: _495  and  _497
REMARK  207  A    between atoms: _497  and  _498
REMARK  208  A    between atoms: _500  and  _502
REMARK  209  A    between atoms: _502  and  _503
REMARK  210  A    between atoms: _502  and  _505
REMARK  211  A    between atoms: _505  and  _506
REMARK  212  A    between atoms: _507  and  _509
REMARK  213  A    between atoms: _509  and  _510
REMARK  214  A    between atoms: _513  and  _515
REMARK  215  A    between atoms: _515  and  _516
REMARK  216  A    between atoms: _515  and  _518
REMARK  217  A    between atoms: _518  and  _519
REMARK  218  A    between atoms: _519  and  _520
REMARK  219  A    between atoms: _525  and  _527
REMARK  220  A    between atoms: _527  and  _528
REMARK  221  A    between atoms: _527  and  _530
REMARK  222  A    between atoms: _530  and  _531
REMARK  223  A    between atoms: _531  and  _532
REMARK  224  A    between atoms: _532  and  _533
REMARK  225  A    between atoms: _543  and  _544
REMARK  226  A    between atoms: _549  and  _551
REMARK  227  A    between atoms: _551  and  _552
REMARK  228  A    between atoms: _554  and  _556
REMARK  229  A    between atoms: _556  and  _557
REMARK  230  A    between atoms: _556  and  _559
REMARK  231  A    between atoms: _562  and  _564
REMARK  232  A    between atoms: _564  and  _565
REMARK  233  A    between atoms: _564  and  _567
REMARK  234  A    between atoms: _567  and  _568
REMARK  235  A    between atoms: _573  and  _574
REMARK  236  A    between atoms: _576  and  _578
REMARK  237  A    between atoms: _578  and  _579
REMARK  238  A    between atoms: _578  and  _581
REMARK  239  A    between atoms: _581  and  _582
REMARK                            x       y       z     vdW  Elec       q    Type
REMARK                         _______ _______ _______ _____ _____    ______ ____
ROOT
ATOM      1  O   HOH     1      54.275  34.715  -1.203  0.00  0.00    +0.000 OA
ENDROOT
TORSDOF 0
REMARK  Name = ../refined-set-2016/4crf/4crf_pocket.pdb
REMARK  239 active torsions:
REMARK  status: ('A' for Active; 'I' for Inactive)
REMARK    1  A    between atoms: _1  and  _5
REMARK    2  A    between atoms: _5  and  _6
REMARK    3  A    between atoms: _5  and  _8
REMARK    4  A    between atoms: _8  and  _9
REMARK    5  A    between atoms: _12  and  _14
REMARK    6  A    between atoms: _14  and  _15
REMARK    7  A    between atoms: _14  and  _17
REMARK    8  A    between atoms: _20  and  _22
REMARK    9  A    between atoms: _22  and  _23
REMARK   10  A    between atoms: _22  and  _25
REMARK   11  A    between atoms: _25  and  _26
REMARK   12  A    between atoms: _29  and  _31
REMARK   13  A    between atoms: _31  and  _32
REMARK   14  A    between atoms: _31  and  _34
REMARK   15  A    between atoms: _34  and  _35
REMARK   16  A    between atoms: _38  and  _40
REMARK   17  A    between atoms: _40  and  _41
REMARK   18  A    between atoms: _40  and  _43
REMARK   19  A    between atoms: _43  and  _44
REMARK   20  A    between atoms: _47  and  _49
REMARK   21  A    between atoms: _49  and  _50
REMARK   22  A    between atoms: _49  and  _52
REMARK   23  A    between atoms: _52  and  _53
REMARK   24  A    between atoms: _56  and  _58
REMARK   25  A    between atoms: _58  and  _59
REMARK   26  A    between atoms: _58  and  _61
REMARK   27  A    between atoms: _61  and  _62
REMARK   28  A    between atoms: _62  and  _63
REMARK   29  A    between atoms: _68  and  _70
REMARK   30  A    between atoms: _70  and  _71
REMARK   31  A    between atoms: _70  and  _73
REMARK   32  A    between atoms: _73  and  _74
REMARK   33  A    between atoms: _74  and  _75
REMARK   34  A    between atoms: _75  and  _76
REMARK   35  A    between atoms: _85  and  _87
REMARK   36  A    between atoms: _87  and  _88
REMARK   37  A    between atoms: _87  and  _90
REMARK   38  A    between atoms: _90  and  _91
REMARK   39  A    between atoms: _96  and  _98
REMARK   40  A    between atoms: _98  and  _99
REMARK   41  A    between atoms: _98  and  _101
REMARK   42  A    between atoms: _101  and  _102
REMARK   43  A    between atoms: _105  and  _107
REMARK   44  A    between atoms: _107  and  _108
REMARK   45  A    between atoms: _107  and  _110
REMARK   46  A    between atoms: _110  and  _111
REMARK   47  A    between atoms: _111  and  _146
REMARK   48  A    between atoms: _112  and  _114
REMARK   49  A    between atoms: _114  and  _115
REMARK   50  A    between atoms: _117  and  _119
REMARK   51  A    between atoms: _119  and  _120
REMARK   52  A    between atoms: _123  and  _125
REMARK   53  A    between atoms: _125  and  _126
REMARK   54  A    between atoms: _129  and  _131
REMARK   55  A    between atoms: _131  and  _132
REMARK   56  A    between atoms: _131  and  _134
REMARK   57  A    between atoms: _134  and  _135
REMARK   58  A    between atoms: _140  and  _142
REMARK   59  A    between atoms: _142  and  _143
REMARK   60  A    between atoms: _142  and  _145
REMARK   61  A    between atoms: _145  and  _146
REMARK   62  A    between atoms: _147  and  _149
REMARK   63  A    between atoms: _149  and  _150
REMARK   64  A    between atoms: _149  and  _152
REMARK   65  A    between atoms: _152  and  _153
REMARK   66  A    between atoms: _159  and  _161
REMARK   67  A    between atoms: _161  and  _162
REMARK   68  A    between atoms: _161  and  _164
REMARK   69  A    between atoms: _164  and  _165
REMARK   70  A    between atoms: _170  and  _171
REMARK   71  A    between atoms: _173  and  _175
REMARK   72  A    between atoms: _175  and  _176
REMARK   73  A    between atoms: _178  and  _180
REMARK   74  A    between atoms: _180  and  _181
REMARK   75  A    between atoms: _180  and  _183
REMARK   76  A    between atoms: _186  and  _188
REMARK   77  A    between atoms: _188  and  _189
REMARK   78  A    between atoms: _192  and  _194
REMARK   79  A    between atoms: _194  and  _195
REMARK   80  A    between atoms: _194  and  _197
REMARK   81  A    between atoms: _197  and  _198
REMARK   82  A    between atoms: _201  and  _203
REMARK   83  A    between atoms: _203  and  _204
REMARK   84  A    between atoms: _203  and  _206
REMARK   85  A    between atoms: _209  and  _211
REMARK   86  A    between atoms: _211  and  _212
REMARK   87  A    between atoms: _211  and  _214
REMARK   88  A    between atoms: _214  and  _215
REMARK   89  A    between atoms: _225  and  _227
REMARK   90  A    between atoms: _227  and  _228
REMARK   91  A    between atoms: _230  and  _232
REMARK   92  A    between atoms: _232  and  _233
REMARK   93  A    between atoms: _232  and  _235
REMARK   94  A    between atoms: _235  and  _236
REMARK   95  A    between atoms: _241  and  _242
REMARK   96  A    between atoms: _244  and  _246
REMARK   97  A    between atoms: _246  and  _247
REMARK   98  A    between atoms: _246  and  _249
REMARK   99  A    between atoms: _249  and  _250
REMARK  100  A    between atoms: _250  and  _251
REMARK  101  A    between atoms: _251  and  _252
REMARK  102  A    between atoms: _252  and  _253
REMARK  103  A    between atoms: _257  and  _259
REMARK  104  A    between atoms: _259  and  _260
REMARK  105  A    between atoms: _259  and  _262
REMARK  106  A    between atoms: _262  and  _263
REMARK  107  A    between atoms: _266  and  _268
REMARK  108  A    between atoms: _268  and  _269
REMARK  109  A    between atoms: _268  and  _271
REMARK  110  A    between atoms: _271  and  _272
REMARK  111  A    between atoms: _272  and  _273
REMARK  112  A    between atoms: _273  and  _274
REMARK  113  A    between atoms: _283  and  _285
REMARK  114  A    between atoms: _285  and  _286
REMARK  115  A    between atoms: _285  and  _288
REMARK  116  A    between atoms: _288  and  _289
REMARK  117  A    between atoms: _292  and  _294
REMARK  118  A    between atoms: _294  and  _295
REMARK  119  A    between atoms: _294  and  _297
REMARK  120  A    between atoms: _297  and  _298
REMARK  121  A    between atoms: _298  and  _299
REMARK  122  A    between atoms: _299  and  _300
REMARK  123  A    between atoms: _300  and  _301
REMARK  124  A    between atoms: _305  and  _307
REMARK  125  A    between atoms: _307  and  _308
REMARK  126  A    between atoms: _307  and  _310
REMARK  127  A    between atoms: _310  and  _311
REMARK  128  A    between atoms: _314  and  _316
REMARK  129  A    between atoms: _316  and  _317
REMARK  130  A    between atoms: _316  and  _319
REMARK  131  A    between atoms: _319  and  _320
REMARK  132  A    between atoms: _320  and  _321
REMARK  133  A    between atoms: _326  and  _328
REMARK  134  A    between atoms: _328  and  _329
REMARK  135  A    between atoms: _328  and  _331
REMARK  136  A    between atoms: _331  and  _332
REMARK  137  A    between atoms: _335  and  _337
REMARK  138  A    between atoms: _337  and  _338
REMARK  139  A    between atoms: _337  and  _340
REMARK  140  A    between atoms: _340  and  _341
REMARK  141  A    between atoms: _346  and  _347
REMARK  142  A    between atoms: _349  and  _351
REMARK  143  A    between atoms: _351  and  _352
REMARK  144  A    between atoms: _351  and  _354
REMARK  145  A    between atoms: _354  and  _355
REMARK  146  A    between atoms: _358  and  _360
REMARK  147  A    between atoms: _360  and  _361
REMARK  148  A    between atoms: _360  and  _363
REMARK  149  A    between atoms: _365  and  _367
REMARK  150  A    between atoms: _367  and  _368
REMARK  151  A    between atoms: _371  and  _373
REMARK  152  A    between atoms: _373  and  _374
REMARK  153  A    between atoms: _373  and  _376
REMARK  154  A    between atoms: _376  and  _377
REMARK  155  A    between atoms: _380  and  _382
REMARK  156  A    between atoms: _382  and  _383
REMARK  157  A    between atoms: _386  and  _388
REMARK  158  A    between atoms: _388  and  _389
REMARK  159  A    between atoms: _388  and  _391
REMARK  160  A    between atoms: _391  and  _392
REMARK  161  A    between atoms: _392  and  _506
REMARK  162  A    between atoms: _393  and  _395
REMARK  163  A    between atoms: _395  and  _396
REMARK  164  A    between atoms: _395  and  _398
REMARK  165  A    between atoms: _398  and  _399
REMARK  166  A    between atoms: _399  and  _400
REMARK  167  A    between atoms: _400  and  _401
REMARK  168  A    between atoms: _401  and  _402
REMARK  169  A    between atoms: _406  and  _408
REMARK  170  A    between atoms: _408  and  _409
REMARK  171  A    between atoms: _411  and  _413
REMARK  172  A    between atoms: _413  and  _414
REMARK  173  A    between atoms: _413  and  _416
REMARK  174  A    between atoms: _416  and  _417
REMARK  175  A    between atoms: _420  and  _422
REMARK  176  A    between atoms: _422  and  _423
REMARK  177  A    between atoms: _422  and  _425
REMARK  178  A    between atoms: _425  and  _426
REMARK  179  A    between atoms: _428  and  _430
REMARK  180  A    between atoms: _430  and  _431
REMARK  181  A    between atoms: _433  and  _435
REMARK  182  A    between atoms: _435  and  _436
REMARK  183  A    between atoms: _438  and  _440
REMARK  184  A    between atoms: _440  and  _441
REMARK  185  A    between atoms: _440  and  _443
REMARK  186  A    between atoms: _443  and  _444
REMARK  187  A    between atoms: _447  and  _449
REMARK  188  A    between atoms: _449  and  _450
REMARK  189  A    between atoms: _449  and  _452
REMARK  190  A    between atoms: _452  and  _453
REMARK  191  A    between atoms: _456  and  _458
REMARK  192  A    between atoms: _458  and  _459
REMARK  193  A    between atoms: _458  and  _461
REMARK  194  A    between atoms: _461  and  _462
REMARK  195  A    between atoms: _464  and  _466
REMARK  196  A    between atoms: _466  and  _467
REMARK  197  A    between atoms: _466  and  _469
REMARK  198  A    between atoms: _469  and  _470
REMARK  199  A    between atoms: _480  and  _482
REMARK  200  A    between atoms: _482  and  _483
REMARK  201  A    between atoms: _485  and  _487
REMARK  202  A    between atoms: _487  and  _488
REMARK  203  A    between atoms: _487  and  _490
REMARK  204  A    between atoms: _490  and  _491
REMARK  205  A    between atoms: _491  and  _492
REMARK  206  A    between atoms: _495  and  _497
REMARK  207  A    between atoms: _497  and  _498
REMARK  208  A    between atoms: _500  and  _502
REMARK  209  A    between atoms: _502  and  _503
REMARK  210  A    between atoms: _502  and  _505
REMARK  211  A    between atoms: _505  and  _506
REMARK  212  A    between atoms: _507  and  _509
REMARK  213  A    between atoms: _509  and  _510
REMARK  214  A    between atoms: _513  and  _515
REMARK  215  A    between atoms: _515  and  _516
REMARK  216  A    between atoms: _515  and  _518
REMARK  217  A    between atoms: _518  and  _519
REMARK  218  A    between atoms: _519  and  _520
REMARK  219  A    between atoms: _525  and  _527
REMARK  220  A    between atoms: _527  and  _528
REMARK  221  A    between atoms: _527  and  _530
REMARK  222  A    between atoms: _530  and  _531
REMARK  223  A    between atoms: _531  and  _532
REMARK  224  A    between atoms: _532  and  _533
REMARK  225  A    between atoms: _543  and  _544
REMARK  226  A    between atoms: _549  and  _551
REMARK  227  A    between atoms: _551  and  _552
REMARK  228  A    between atoms: _554  and  _556
REMARK  229  A    between atoms: _556  and  _557
REMARK  230  A    between atoms: _556  and  _559
REMARK  231  A    between atoms: _562  and  _564
REMARK  232  A    between atoms: _564  and  _565
REMARK  233  A    between atoms: _564  and  _567
REMARK  234  A    between atoms: _567  and  _568
REMARK  235  A    between atoms: _573  and  _574
REMARK  236  A    between atoms: _576  and  _578
REMARK  237  A    between atoms: _578  and  _579
REMARK  238  A    between atoms: _578  and  _581
REMARK  239  A    between atoms: _581  and  _582
REMARK                            x       y       z     vdW  Elec       q    Type
REMARK                         _______ _______ _______ _____ _____    ______ ____
ROOT
ATOM      1  O   HOH     1      53.319  25.980  20.300  0.00  0.00    +0.000 OA
ENDROOT
TORSDOF 0
REMARK  Name = ../refined-set-2016/4crf/4crf_pocket.pdb
REMARK  239 active torsions:
REMARK  status: ('A' for Active; 'I' for Inactive)
REMARK    1  A    between atoms: _1  and  _5
REMARK    2  A    between atoms: _5  and  _6
REMARK    3  A    between atoms: _5  and  _8
REMARK    4  A    between atoms: _8  and  _9
REMARK    5  A    between atoms: _12  and  _14
REMARK    6  A    between atoms: _14  and  _15
REMARK    7  A    between atoms: _14  and  _17
REMARK    8  A    between atoms: _20  and  _22
REMARK    9  A    between atoms: _22  and  _23
REMARK   10  A    between atoms: _22  and  _25
REMARK   11  A    between atoms: _25  and  _26
REMARK   12  A    between atoms: _29  and  _31
REMARK   13  A    between atoms: _31  and  _32
REMARK   14  A    between atoms: _31  and  _34
REMARK   15  A    between atoms: _34  and  _35
REMARK   16  A    between atoms: _38  and  _40
REMARK   17  A    between atoms: _40  and  _41
REMARK   18  A    between atoms: _40  and  _43
REMARK   19  A    between atoms: _43  and  _44
REMARK   20  A    between atoms: _47  and  _49
REMARK   21  A    between atoms: _49  and  _50
REMARK   22  A    between atoms: _49  and  _52
REMARK   23  A    between atoms: _52  and  _53
REMARK   24  A    between atoms: _56  and  _58
REMARK   25  A    between atoms: _58  and  _59
REMARK   26  A    between atoms: _58  and  _61
REMARK   27  A    between atoms: _61  and  _62
REMARK   28  A    between atoms: _62  and  _63
REMARK   29  A    between atoms: _68  and  _70
REMARK   30  A    between atoms: _70  and  _71
REMARK   31  A    between atoms: _70  and  _73
REMARK   32  A    between atoms: _73  and  _74
REMARK   33  A    between atoms: _74  and  _75
REMARK   34  A    between atoms: _75  and  _76
REMARK   35  A    between atoms: _85  and  _87
REMARK   36  A    between atoms: _87  and  _88
REMARK   37  A    between atoms: _87  and  _90
REMARK   38  A    between atoms: _90  and  _91
REMARK   39  A    between atoms: _96  and  _98
REMARK   40  A    between atoms: _98  and  _99
REMARK   41  A    between atoms: _98  and  _101
REMARK   42  A    between atoms: _101  and  _102
REMARK   43  A    between atoms: _105  and  _107
REMARK   44  A    between atoms: _107  and  _108
REMARK   45  A    between atoms: _107  and  _110
REMARK   46  A    between atoms: _110  and  _111
REMARK   47  A    between atoms: _111  and  _146
REMARK   48  A    between atoms: _112  and  _114
REMARK   49  A    between atoms: _114  and  _115
REMARK   50  A    between atoms: _117  and  _119
REMARK   51  A    between atoms: _119  and  _120
REMARK   52  A    between atoms: _123  and  _125
REMARK   53  A    between atoms: _125  and  _126
REMARK   54  A    between atoms: _129  and  _131
REMARK   55  A    between atoms: _131  and  _132
REMARK   56  A    between atoms: _131  and  _134
REMARK   57  A    between atoms: _134  and  _135
REMARK   58  A    between atoms: _140  and  _142
REMARK   59  A    between atoms: _142  and  _143
REMARK   60  A    between atoms: _142  and  _145
REMARK   61  A    between atoms: _145  and  _146
REMARK   62  A    between atoms: _147  and  _149
REMARK   63  A    between atoms: _149  and  _150
REMARK   64  A    between atoms: _149  and  _152
REMARK   65  A    between atoms: _152  and  _153
REMARK   66  A    between atoms: _159  and  _161
REMARK   67  A    between atoms: _161  and  _162
REMARK   68  A    between atoms: _161  and  _164
REMARK   69  A    between atoms: _164  and  _165
REMARK   70  A    between atoms: _170  and  _171
REMARK   71  A    between atoms: _173  and  _175
REMARK   72  A    between atoms: _175  and  _176
REMARK   73  A    between atoms: _178  and  _180
REMARK   74  A    between atoms: _180  and  _181
REMARK   75  A    between atoms: _180  and  _183
REMARK   76  A    between atoms: _186  and  _188
REMARK   77  A    between atoms: _188  and  _189
REMARK   78  A    between atoms: _192  and  _194
REMARK   79  A    between atoms: _194  and  _195
REMARK   80  A    between atoms: _194  and  _197
REMARK   81  A    between atoms: _197  and  _198
REMARK   82  A    between atoms: _201  and  _203
REMARK   83  A    between atoms: _203  and  _204
REMARK   84  A    between atoms: _203  and  _206
REMARK   85  A    between atoms: _209  and  _211
REMARK   86  A    between atoms: _211  and  _212
REMARK   87  A    between atoms: _211  and  _214
REMARK   88  A    between atoms: _214  and  _215
REMARK   89  A    between atoms: _225  and  _227
REMARK   90  A    between atoms: _227  and  _228
REMARK   91  A    between atoms: _230  and  _232
REMARK   92  A    between atoms: _232  and  _233
REMARK   93  A    between atoms: _232  and  _235
REMARK   94  A    between atoms: _235  and  _236
REMARK   95  A    between atoms: _241  and  _242
REMARK   96  A    between atoms: _244  and  _246
REMARK   97  A    between atoms: _246  and  _247
REMARK   98  A    between atoms: _246  and  _249
REMARK   99  A    between atoms: _249  and  _250
REMARK  100  A    between atoms: _250  and  _251
REMARK  101  A    between atoms: _251  and  _252
REMARK  102  A    between atoms: _252  and  _253
REMARK  103  A    between atoms: _257  and  _259
REMARK  104  A    between atoms: _259  and  _260
REMARK  105  A    between atoms: _259  and  _262
REMARK  106  A    between atoms: _262  and  _263
REMARK  107  A    between atoms: _266  and  _268
REMARK  108  A    between atoms: _268  and  _269
REMARK  109  A    between atoms: _268  and  _271
REMARK  110  A    between atoms: _271  and  _272
REMARK  111  A    between atoms: _272  and  _273
REMARK  112  A    between atoms: _273  and  _274
REMARK  113  A    between atoms: _283  and  _285
REMARK  114  A    between atoms: _285  and  _286
REMARK  115  A    between atoms: _285  and  _288
REMARK  116  A    between atoms: _288  and  _289
REMARK  117  A    between atoms: _292  and  _294
REMARK  118  A    between atoms: _294  and  _295
REMARK  119  A    between atoms: _294  and  _297
REMARK  120  A    between atoms: _297  and  _298
REMARK  121  A    between atoms: _298  and  _299
REMARK  122  A    between atoms: _299  and  _300
REMARK  123  A    between atoms: _300  and  _301
REMARK  124  A    between atoms: _305  and  _307
REMARK  125  A    between atoms: _307  and  _308
REMARK  126  A    between atoms: _307  and  _310
REMARK  127  A    between atoms: _310  and  _311
REMARK  128  A    between atoms: _314  and  _316
REMARK  129  A    between atoms: _316  and  _317
REMARK  130  A    between atoms: _316  and  _319
REMARK  131  A    between atoms: _319  and  _320
REMARK  132  A    between atoms: _320  and  _321
REMARK  133  A    between atoms: _326  and  _328
REMARK  134  A    between atoms: _328  and  _329
REMARK  135  A    between atoms: _328  and  _331
REMARK  136  A    between atoms: _331  and  _332
REMARK  137  A    between atoms: _335  and  _337
REMARK  138  A    between atoms: _337  and  _338
REMARK  139  A    between atoms: _337  and  _340
REMARK  140  A    between atoms: _340  and  _341
REMARK  141  A    between atoms: _346  and  _347
REMARK  142  A    between atoms: _349  and  _351
REMARK  143  A    between atoms: _351  and  _352
REMARK  144  A    between atoms: _351  and  _354
REMARK  145  A    between atoms: _354  and  _355
REMARK  146  A    between atoms: _358  and  _360
REMARK  147  A    between atoms: _360  and  _361
REMARK  148  A    between atoms: _360  and  _363
REMARK  149  A    between atoms: _365  and  _367
REMARK  150  A    between atoms: _367  and  _368
REMARK  151  A    between atoms: _371  and  _373
REMARK  152  A    between atoms: _373  and  _374
REMARK  153  A    between atoms: _373  and  _376
REMARK  154  A    between atoms: _376  and  _377
REMARK  155  A    between atoms: _380  and  _382
REMARK  156  A    between atoms: _382  and  _383
REMARK  157  A    between atoms: _386  and  _388
REMARK  158  A    between atoms: _388  and  _389
REMARK  159  A    between atoms: _388  and  _391
REMARK  160  A    between atoms: _391  and  _392
REMARK  161  A    between atoms: _392  and  _506
REMARK  162  A    between atoms: _393  and  _395
REMARK  163  A    between atoms: _395  and  _396
REMARK  164  A    between atoms: _395  and  _398
REMARK  165  A    between atoms: _398  and  _399
REMARK  166  A    between atoms: _399  and  _400
REMARK  167  A    between atoms: _400  and  _401
REMARK  168  A    between atoms: _401  and  _402
REMARK  169  A    between atoms: _406  and  _408
REMARK  170  A    between atoms: _408  and  _409
REMARK  171  A    between atoms: _411  and  _413
REMARK  172  A    between atoms: _413  and  _414
REMARK  173  A    between atoms: _413  and  _416
REMARK  174  A    between atoms: _416  and  _417
REMARK  175  A    between atoms: _420  and  _422
REMARK  176  A    between atoms: _422  and  _423
REMARK  177  A    between atoms: _422  and  _425
REMARK  178  A    between atoms: _425  and  _426
REMARK  179  A    between atoms: _428  and  _430
REMARK  180  A    between atoms: _430  and  _431
REMARK  181  A    between atoms: _433  and  _435
REMARK  182  A    between atoms: _435  and  _436
REMARK  183  A    between atoms: _438  and  _440
REMARK  184  A    between atoms: _440  and  _441
REMARK  185  A    between atoms: _440  and  _443
REMARK  186  A    between atoms: _443  and  _444
REMARK  187  A    between atoms: _447  and  _449
REMARK  188  A    between atoms: _449  and  _450
REMARK  189  A    between atoms: _449  and  _452
REMARK  190  A    between atoms: _452  and  _453
REMARK  191  A    between atoms: _456  and  _458
REMARK  192  A    between atoms: _458  and  _459
REMARK  193  A    between atoms: _458  and  _461
REMARK  194  A    between atoms: _461  and  _462
REMARK  195  A    between atoms: _464  and  _466
REMARK  196  A    between atoms: _466  and  _467
REMARK  197  A    between atoms: _466  and  _469
REMARK  198  A    between atoms: _469  and  _470
REMARK  199  A    between atoms: _480  and  _482
REMARK  200  A    between atoms: _482  and  _483
REMARK  201  A    between atoms: _485  and  _487
REMARK  202  A    between atoms: _487  and  _488
REMARK  203  A    between atoms: _487  and  _490
REMARK  204  A    between atoms: _490  and  _491
REMARK  205  A    between atoms: _491  and  _492
REMARK  206  A    between atoms: _495  and  _497
REMARK  207  A    between atoms: _497  and  _498
REMARK  208  A    between atoms: _500  and  _502
REMARK  209  A    between atoms: _502  and  _503
REMARK  210  A    between atoms: _502  and  _505
REMARK  211  A    between atoms: _505  and  _506
REMARK  212  A    between atoms: _507  and  _509
REMARK  213  A    between atoms: _509  and  _510
REMARK  214  A    between atoms: _513  and  _515
REMARK  215  A    between atoms: _515  and  _516
REMARK  216  A    between atoms: _515  and  _518
REMARK  217  A    between atoms: _518  and  _519
REMARK  218  A    between atoms: _519  and  _520
REMARK  219  A    between atoms: _525  and  _527
REMARK  220  A    between atoms: _527  and  _528
REMARK  221  A    between atoms: _527  and  _530
REMARK  222  A    between atoms: _530  and  _531
REMARK  223  A    between atoms: _531  and  _532
REMARK  224  A    between atoms: _532  and  _533
REMARK  225  A    between atoms: _543  and  _544
REMARK  226  A    between atoms: _549  and  _551
REMARK  227  A    between atoms: _551  and  _552
REMARK  228  A    between atoms: _554  and  _556
REMARK  229  A    between atoms: _556  and  _557
REMARK  230  A    between atoms: _556  and  _559
REMARK  231  A    between atoms: _562  and  _564
REMARK  232  A    between atoms: _564  and  _565
REMARK  233  A    between atoms: _564  and  _567
REMARK  234  A    between atoms: _567  and  _568
REMARK  235  A    between atoms: _573  and  _574
REMARK  236  A    between atoms: _576  and  _578
REMARK  237  A    between atoms: _578  and  _579
REMARK  238  A    between atoms: _578  and  _581
REMARK  239  A    between atoms: _581  and  _582
REMARK                            x       y       z     vdW  Elec       q    Type
REMARK                         _______ _______ _______ _____ _____    ______ ____
ROOT
ATOM      1  O   HOH     1      43.239  25.825   7.704  0.00  0.00    +0.000 OA
ENDROOT
TORSDOF 0
REMARK  Name = ../refined-set-2016/4crf/4crf_pocket.pdb
REMARK  239 active torsions:
REMARK  status: ('A' for Active; 'I' for Inactive)
REMARK    1  A    between atoms: _1  and  _5
REMARK    2  A    between atoms: _5  and  _6
REMARK    3  A    between atoms: _5  and  _8
REMARK    4  A    between atoms: _8  and  _9
REMARK    5  A    between atoms: _12  and  _14
REMARK    6  A    between atoms: _14  and  _15
REMARK    7  A    between atoms: _14  and  _17
REMARK    8  A    between atoms: _20  and  _22
REMARK    9  A    between atoms: _22  and  _23
REMARK   10  A    between atoms: _22  and  _25
REMARK   11  A    between atoms: _25  and  _26
REMARK   12  A    between atoms: _29  and  _31
REMARK   13  A    between atoms: _31  and  _32
REMARK   14  A    between atoms: _31  and  _34
REMARK   15  A    between atoms: _34  and  _35
REMARK   16  A    between atoms: _38  and  _40
REMARK   17  A    between atoms: _40  and  _41
REMARK   18  A    between atoms: _40  and  _43
REMARK   19  A    between atoms: _43  and  _44
REMARK   20  A    between atoms: _47  and  _49
REMARK   21  A    between atoms: _49  and  _50
REMARK   22  A    between atoms: _49  and  _52
REMARK   23  A    between atoms: _52  and  _53
REMARK   24  A    between atoms: _56  and  _58
REMARK   25  A    between atoms: _58  and  _59
REMARK   26  A    between atoms: _58  and  _61
REMARK   27  A    between atoms: _61  and  _62
REMARK   28  A    between atoms: _62  and  _63
REMARK   29  A    between atoms: _68  and  _70
REMARK   30  A    between atoms: _70  and  _71
REMARK   31  A    between atoms: _70  and  _73
REMARK   32  A    between atoms: _73  and  _74
REMARK   33  A    between atoms: _74  and  _75
REMARK   34  A    between atoms: _75  and  _76
REMARK   35  A    between atoms: _85  and  _87
REMARK   36  A    between atoms: _87  and  _88
REMARK   37  A    between atoms: _87  and  _90
REMARK   38  A    between atoms: _90  and  _91
REMARK   39  A    between atoms: _96  and  _98
REMARK   40  A    between atoms: _98  and  _99
REMARK   41  A    between atoms: _98  and  _101
REMARK   42  A    between atoms: _101  and  _102
REMARK   43  A    between atoms: _105  and  _107
REMARK   44  A    between atoms: _107  and  _108
REMARK   45  A    between atoms: _107  and  _110
REMARK   46  A    between atoms: _110  and  _111
REMARK   47  A    between atoms: _111  and  _146
REMARK   48  A    between atoms: _112  and  _114
REMARK   49  A    between atoms: _114  and  _115
REMARK   50  A    between atoms: _117  and  _119
REMARK   51  A    between atoms: _119  and  _120
REMARK   52  A    between atoms: _123  and  _125
REMARK   53  A    between atoms: _125  and  _126
REMARK   54  A    between atoms: _129  and  _131
REMARK   55  A    between atoms: _131  and  _132
REMARK   56  A    between atoms: _131  and  _134
REMARK   57  A    between atoms: _134  and  _135
REMARK   58  A    between atoms: _140  and  _142
REMARK   59  A    between atoms: _142  and  _143
REMARK   60  A    between atoms: _142  and  _145
REMARK   61  A    between atoms: _145  and  _146
REMARK   62  A    between atoms: _147  and  _149
REMARK   63  A    between atoms: _149  and  _150
REMARK   64  A    between atoms: _149  and  _152
REMARK   65  A    between atoms: _152  and  _153
REMARK   66  A    between atoms: _159  and  _161
REMARK   67  A    between atoms: _161  and  _162
REMARK   68  A    between atoms: _161  and  _164
REMARK   69  A    between atoms: _164  and  _165
REMARK   70  A    between atoms: _170  and  _171
REMARK   71  A    between atoms: _173  and  _175
REMARK   72  A    between atoms: _175  and  _176
REMARK   73  A    between atoms: _178  and  _180
REMARK   74  A    between atoms: _180  and  _181
REMARK   75  A    between atoms: _180  and  _183
REMARK   76  A    between atoms: _186  and  _188
REMARK   77  A    between atoms: _188  and  _189
REMARK   78  A    between atoms: _192  and  _194
REMARK   79  A    between atoms: _194  and  _195
REMARK   80  A    between atoms: _194  and  _197
REMARK   81  A    between atoms: _197  and  _198
REMARK   82  A    between atoms: _201  and  _203
REMARK   83  A    between atoms: _203  and  _204
REMARK   84  A    between atoms: _203  and  _206
REMARK   85  A    between atoms: _209  and  _211
REMARK   86  A    between atoms: _211  and  _212
REMARK   87  A    between atoms: _211  and  _214
REMARK   88  A    between atoms: _214  and  _215
REMARK   89  A    between atoms: _225  and  _227
REMARK   90  A    between atoms: _227  and  _228
REMARK   91  A    between atoms: _230  and  _232
REMARK   92  A    between atoms: _232  and  _233
REMARK   93  A    between atoms: _232  and  _235
REMARK   94  A    between atoms: _235  and  _236
REMARK   95  A    between atoms: _241  and  _242
REMARK   96  A    between atoms: _244  and  _246
REMARK   97  A    between atoms: _246  and  _247
REMARK   98  A    between atoms: _246  and  _249
REMARK   99  A    between atoms: _249  and  _250
REMARK  100  A    between atoms: _250  and  _251
REMARK  101  A    between atoms: _251  and  _252
REMARK  102  A    between atoms: _252  and  _253
REMARK  103  A    between atoms: _257  and  _259
REMARK  104  A    between atoms: _259  and  _260
REMARK  105  A    between atoms: _259  and  _262
REMARK  106  A    between atoms: _262  and  _263
REMARK  107  A    between atoms: _266  and  _268
REMARK  108  A    between atoms: _268  and  _269
REMARK  109  A    between atoms: _268  and  _271
REMARK  110  A    between atoms: _271  and  _272
REMARK  111  A    between atoms: _272  and  _273
REMARK  112  A    between atoms: _273  and  _274
REMARK  113  A    between atoms: _283  and  _285
REMARK  114  A    between atoms: _285  and  _286
REMARK  115  A    between atoms: _285  and  _288
REMARK  116  A    between atoms: _288  and  _289
REMARK  117  A    between atoms: _292  and  _294
REMARK  118  A    between atoms: _294  and  _295
REMARK  119  A    between atoms: _294  and  _297
REMARK  120  A    between atoms: _297  and  _298
REMARK  121  A    between atoms: _298  and  _299
REMARK  122  A    between atoms: _299  and  _300
REMARK  123  A    between atoms: _300  and  _301
REMARK  124  A    between atoms: _305  and  _307
REMARK  125  A    between atoms: _307  and  _308
REMARK  126  A    between atoms: _307  and  _310
REMARK  127  A    between atoms: _310  and  _311
REMARK  128  A    between atoms: _314  and  _316
REMARK  129  A    between atoms: _316  and  _317
REMARK  130  A    between atoms: _316  and  _319
REMARK  131  A    between atoms: _319  and  _320
REMARK  132  A    between atoms: _320  and  _321
REMARK  133  A    between atoms: _326  and  _328
REMARK  134  A    between atoms: _328  and  _329
REMARK  135  A    between atoms: _328  and  _331
REMARK  136  A    between atoms: _331  and  _332
REMARK  137  A    between atoms: _335  and  _337
REMARK  138  A    between atoms: _337  and  _338
REMARK  139  A    between atoms: _337  and  _340
REMARK  140  A    between atoms: _340  and  _341
REMARK  141  A    between atoms: _346  and  _347
REMARK  142  A    between atoms: _349  and  _351
REMARK  143  A    between atoms: _351  and  _352
REMARK  144  A    between atoms: _351  and  _354
REMARK  145  A    between atoms: _354  and  _355
REMARK  146  A    between atoms: _358  and  _360
REMARK  147  A    between atoms: _360  and  _361
REMARK  148  A    between atoms: _360  and  _363
REMARK  149  A    between atoms: _365  and  _367
REMARK  150  A    between atoms: _367  and  _368
REMARK  151  A    between atoms: _371  and  _373
REMARK  152  A    between atoms: _373  and  _374
REMARK  153  A    between atoms: _373  and  _376
REMARK  154  A    between atoms: _376  and  _377
REMARK  155  A    between atoms: _380  and  _382
REMARK  156  A    between atoms: _382  and  _383
REMARK  157  A    between atoms: _386  and  _388
REMARK  158  A    between atoms: _388  and  _389
REMARK  159  A    between atoms: _388  and  _391
REMARK  160  A    between atoms: _391  and  _392
REMARK  161  A    between atoms: _392  and  _506
REMARK  162  A    between atoms: _393  and  _395
REMARK  163  A    between atoms: _395  and  _396
REMARK  164  A    between atoms: _395  and  _398
REMARK  165  A    between atoms: _398  and  _399
REMARK  166  A    between atoms: _399  and  _400
REMARK  167  A    between atoms: _400  and  _401
REMARK  168  A    between atoms: _401  and  _402
REMARK  169  A    between atoms: _406  and  _408
REMARK  170  A    between atoms: _408  and  _409
REMARK  171  A    between atoms: _411  and  _413
REMARK  172  A    between atoms: _413  and  _414
REMARK  173  A    between atoms: _413  and  _416
REMARK  174  A    between atoms: _416  and  _417
REMARK  175  A    between atoms: _420  and  _422
REMARK  176  A    between atoms: _422  and  _423
REMARK  177  A    between atoms: _422  and  _425
REMARK  178  A    between atoms: _425  and  _426
REMARK  179  A    between atoms: _428  and  _430
REMARK  180  A    between atoms: _430  and  _431
REMARK  181  A    between atoms: _433  and  _435
REMARK  182  A    between atoms: _435  and  _436
REMARK  183  A    between atoms: _438  and  _440
REMARK  184  A    between atoms: _440  and  _441
REMARK  185  A    between atoms: _440  and  _443
REMARK  186  A    between atoms: _443  and  _444
REMARK  187  A    between atoms: _447  and  _449
REMARK  188  A    between atoms: _449  and  _450
REMARK  189  A    between atoms: _449  and  _452
REMARK  190  A    between atoms: _452  and  _453
REMARK  191  A    between atoms: _456  and  _458
REMARK  192  A    between atoms: _458  and  _459
REMARK  193  A    between atoms: _458  and  _461
REMARK  194  A    between atoms: _461  and  _462
REMARK  195  A    between atoms: _464  and  _466
REMARK  196  A    between atoms: _466  and  _467
REMARK  197  A    between atoms: _466  and  _469
REMARK  198  A    between atoms: _469  and  _470
REMARK  199  A    between atoms: _480  and  _482
REMARK  200  A    between atoms: _482  and  _483
REMARK  201  A    between atoms: _485  and  _487
REMARK  202  A    between atoms: _487  and  _488
REMARK  203  A    between atoms: _487  and  _490
REMARK  204  A    between atoms: _490  and  _491
REMARK  205  A    between atoms: _491  and  _492
REMARK  206  A    between atoms: _495  and  _497
REMARK  207  A    between atoms: _497  and  _498
REMARK  208  A    between atoms: _500  and  _502
REMARK  209  A    between atoms: _502  and  _503
REMARK  210  A    between atoms: _502  and  _505
REMARK  211  A    between atoms: _505  and  _506
REMARK  212  A    between atoms: _507  and  _509
REMARK  213  A    between atoms: _509  and  _510
REMARK  214  A    between atoms: _513  and  _515
REMARK  215  A    between atoms: _515  and  _516
REMARK  216  A    between atoms: _515  and  _518
REMARK  217  A    between atoms: _518  and  _519
REMARK  218  A    between atoms: _519  and  _520
REMARK  219  A    between atoms: _525  and  _527
REMARK  220  A    between atoms: _527  and  _528
REMARK  221  A    between atoms: _527  and  _530
REMARK  222  A    between atoms: _530  and  _531
REMARK  223  A    between atoms: _531  and  _532
REMARK  224  A    between atoms: _532  and  _533
REMARK  225  A    between atoms: _543  and  _544
REMARK  226  A    between atoms: _549  and  _551
REMARK  227  A    between atoms: _551  and  _552
REMARK  228  A    between atoms: _554  and  _556
REMARK  229  A    between atoms: _556  and  _557
REMARK  230  A    between atoms: _556  and  _559
REMARK  231  A    between atoms: _562  and  _564
REMARK  232  A    between atoms: _564  and  _565
REMARK  233  A    between atoms: _564  and  _567
REMARK  234  A    between atoms: _567  and  _568
REMARK  235  A    between atoms: _573  and  _574
REMARK  236  A    between atoms: _576  and  _578
REMARK  237  A    between atoms: _578  and  _579
REMARK  238  A    between atoms: _578  and  _581
REMARK  239  A    between atoms: _581  and  _582
REMARK                            x       y       z     vdW  Elec       q    Type
REMARK                         _______ _______ _______ _____ _____    ______ ____
ROOT
ATOM      1  O   HOH     1      42.926  17.493   9.876  0.00  0.00    +0.000 OA
ENDROOT
TORSDOF 0
REMARK  Name = ../refined-set-2016/4crf/4crf_pocket.pdb
REMARK  239 active torsions:
REMARK  status: ('A' for Active; 'I' for Inactive)
REMARK    1  A    between atoms: _1  and  _5
REMARK    2  A    between atoms: _5  and  _6
REMARK    3  A    between atoms: _5  and  _8
REMARK    4  A    between atoms: _8  and  _9
REMARK    5  A    between atoms: _12  and  _14
REMARK    6  A    between atoms: _14  and  _15
REMARK    7  A    between atoms: _14  and  _17
REMARK    8  A    between atoms: _20  and  _22
REMARK    9  A    between atoms: _22  and  _23
REMARK   10  A    between atoms: _22  and  _25
REMARK   11  A    between atoms: _25  and  _26
REMARK   12  A    between atoms: _29  and  _31
REMARK   13  A    between atoms: _31  and  _32
REMARK   14  A    between atoms: _31  and  _34
REMARK   15  A    between atoms: _34  and  _35
REMARK   16  A    between atoms: _38  and  _40
REMARK   17  A    between atoms: _40  and  _41
REMARK   18  A    between atoms: _40  and  _43
REMARK   19  A    between atoms: _43  and  _44
REMARK   20  A    between atoms: _47  and  _49
REMARK   21  A    between atoms: _49  and  _50
REMARK   22  A    between atoms: _49  and  _52
REMARK   23  A    between atoms: _52  and  _53
REMARK   24  A    between atoms: _56  and  _58
REMARK   25  A    between atoms: _58  and  _59
REMARK   26  A    between atoms: _58  and  _61
REMARK   27  A    between atoms: _61  and  _62
REMARK   28  A    between atoms: _62  and  _63
REMARK   29  A    between atoms: _68  and  _70
REMARK   30  A    between atoms: _70  and  _71
REMARK   31  A    between atoms: _70  and  _73
REMARK   32  A    between atoms: _73  and  _74
REMARK   33  A    between atoms: _74  and  _75
REMARK   34  A    between atoms: _75  and  _76
REMARK   35  A    between atoms: _85  and  _87
REMARK   36  A    between atoms: _87  and  _88
REMARK   37  A    between atoms: _87  and  _90
REMARK   38  A    between atoms: _90  and  _91
REMARK   39  A    between atoms: _96  and  _98
REMARK   40  A    between atoms: _98  and  _99
REMARK   41  A    between atoms: _98  and  _101
REMARK   42  A    between atoms: _101  and  _102
REMARK   43  A    between atoms: _105  and  _107
REMARK   44  A    between atoms: _107  and  _108
REMARK   45  A    between atoms: _107  and  _110
REMARK   46  A    between atoms: _110  and  _111
REMARK   47  A    between atoms: _111  and  _146
REMARK   48  A    between atoms: _112  and  _114
REMARK   49  A    between atoms: _114  and  _115
REMARK   50  A    between atoms: _117  and  _119
REMARK   51  A    between atoms: _119  and  _120
REMARK   52  A    between atoms: _123  and  _125
REMARK   53  A    between atoms: _125  and  _126
REMARK   54  A    between atoms: _129  and  _131
REMARK   55  A    between atoms: _131  and  _132
REMARK   56  A    between atoms: _131  and  _134
REMARK   57  A    between atoms: _134  and  _135
REMARK   58  A    between atoms: _140  and  _142
REMARK   59  A    between atoms: _142  and  _143
REMARK   60  A    between atoms: _142  and  _145
REMARK   61  A    between atoms: _145  and  _146
REMARK   62  A    between atoms: _147  and  _149
REMARK   63  A    between atoms: _149  and  _150
REMARK   64  A    between atoms: _149  and  _152
REMARK   65  A    between atoms: _152  and  _153
REMARK   66  A    between atoms: _159  and  _161
REMARK   67  A    between atoms: _161  and  _162
REMARK   68  A    between atoms: _161  and  _164
REMARK   69  A    between atoms: _164  and  _165
REMARK   70  A    between atoms: _170  and  _171
REMARK   71  A    between atoms: _173  and  _175
REMARK   72  A    between atoms: _175  and  _176
REMARK   73  A    between atoms: _178  and  _180
REMARK   74  A    between atoms: _180  and  _181
REMARK   75  A    between atoms: _180  and  _183
REMARK   76  A    between atoms: _186  and  _188
REMARK   77  A    between atoms: _188  and  _189
REMARK   78  A    between atoms: _192  and  _194
REMARK   79  A    between atoms: _194  and  _195
REMARK   80  A    between atoms: _194  and  _197
REMARK   81  A    between atoms: _197  and  _198
REMARK   82  A    between atoms: _201  and  _203
REMARK   83  A    between atoms: _203  and  _204
REMARK   84  A    between atoms: _203  and  _206
REMARK   85  A    between atoms: _209  and  _211
REMARK   86  A    between atoms: _211  and  _212
REMARK   87  A    between atoms: _211  and  _214
REMARK   88  A    between atoms: _214  and  _215
REMARK   89  A    between atoms: _225  and  _227
REMARK   90  A    between atoms: _227  and  _228
REMARK   91  A    between atoms: _230  and  _232
REMARK   92  A    between atoms: _232  and  _233
REMARK   93  A    between atoms: _232  and  _235
REMARK   94  A    between atoms: _235  and  _236
REMARK   95  A    between atoms: _241  and  _242
REMARK   96  A    between atoms: _244  and  _246
REMARK   97  A    between atoms: _246  and  _247
REMARK   98  A    between atoms: _246  and  _249
REMARK   99  A    between atoms: _249  and  _250
REMARK  100  A    between atoms: _250  and  _251
REMARK  101  A    between atoms: _251  and  _252
REMARK  102  A    between atoms: _252  and  _253
REMARK  103  A    between atoms: _257  and  _259
REMARK  104  A    between atoms: _259  and  _260
REMARK  105  A    between atoms: _259  and  _262
REMARK  106  A    between atoms: _262  and  _263
REMARK  107  A    between atoms: _266  and  _268
REMARK  108  A    between atoms: _268  and  _269
REMARK  109  A    between atoms: _268  and  _271
REMARK  110  A    between atoms: _271  and  _272
REMARK  111  A    between atoms: _272  and  _273
REMARK  112  A    between atoms: _273  and  _274
REMARK  113  A    between atoms: _283  and  _285
REMARK  114  A    between atoms: _285  and  _286
REMARK  115  A    between atoms: _285  and  _288
REMARK  116  A    between atoms: _288  and  _289
REMARK  117  A    between atoms: _292  and  _294
REMARK  118  A    between atoms: _294  and  _295
REMARK  119  A    between atoms: _294  and  _297
REMARK  120  A    between atoms: _297  and  _298
REMARK  121  A    between atoms: _298  and  _299
REMARK  122  A    between atoms: _299  and  _300
REMARK  123  A    between atoms: _300  and  _301
REMARK  124  A    between atoms: _305  and  _307
REMARK  125  A    between atoms: _307  and  _308
REMARK  126  A    between atoms: _307  and  _310
REMARK  127  A    between atoms: _310  and  _311
REMARK  128  A    between atoms: _314  and  _316
REMARK  129  A    between atoms: _316  and  _317
REMARK  130  A    between atoms: _316  and  _319
REMARK  131  A    between atoms: _319  and  _320
REMARK  132  A    between atoms: _320  and  _321
REMARK  133  A    between atoms: _326  and  _328
REMARK  134  A    between atoms: _328  and  _329
REMARK  135  A    between atoms: _328  and  _331
REMARK  136  A    between atoms: _331  and  _332
REMARK  137  A    between atoms: _335  and  _337
REMARK  138  A    between atoms: _337  and  _338
REMARK  139  A    between atoms: _337  and  _340
REMARK  140  A    between atoms: _340  and  _341
REMARK  141  A    between atoms: _346  and  _347
REMARK  142  A    between atoms: _349  and  _351
REMARK  143  A    between atoms: _351  and  _352
REMARK  144  A    between atoms: _351  and  _354
REMARK  145  A    between atoms: _354  and  _355
REMARK  146  A    between atoms: _358  and  _360
REMARK  147  A    between atoms: _360  and  _361
REMARK  148  A    between atoms: _360  and  _363
REMARK  149  A    between atoms: _365  and  _367
REMARK  150  A    between atoms: _367  and  _368
REMARK  151  A    between atoms: _371  and  _373
REMARK  152  A    between atoms: _373  and  _374
REMARK  153  A    between atoms: _373  and  _376
REMARK  154  A    between atoms: _376  and  _377
REMARK  155  A    between atoms: _380  and  _382
REMARK  156  A    between atoms: _382  and  _383
REMARK  157  A    between atoms: _386  and  _388
REMARK  158  A    between atoms: _388  and  _389
REMARK  159  A    between atoms: _388  and  _391
REMARK  160  A    between atoms: _391  and  _392
REMARK  161  A    between atoms: _392  and  _506
REMARK  162  A    between atoms: _393  and  _395
REMARK  163  A    between atoms: _395  and  _396
REMARK  164  A    between atoms: _395  and  _398
REMARK  165  A    between atoms: _398  and  _399
REMARK  166  A    between atoms: _399  and  _400
REMARK  167  A    between atoms: _400  and  _401
REMARK  168  A    between atoms: _401  and  _402
REMARK  169  A    between atoms: _406  and  _408
REMARK  170  A    between atoms: _408  and  _409
REMARK  171  A    between atoms: _411  and  _413
REMARK  172  A    between atoms: _413  and  _414
REMARK  173  A    between atoms: _413  and  _416
REMARK  174  A    between atoms: _416  and  _417
REMARK  175  A    between atoms: _420  and  _422
REMARK  176  A    between atoms: _422  and  _423
REMARK  177  A    between atoms: _422  and  _425
REMARK  178  A    between atoms: _425  and  _426
REMARK  179  A    between atoms: _428  and  _430
REMARK  180  A    between atoms: _430  and  _431
REMARK  181  A    between atoms: _433  and  _435
REMARK  182  A    between atoms: _435  and  _436
REMARK  183  A    between atoms: _438  and  _440
REMARK  184  A    between atoms: _440  and  _441
REMARK  185  A    between atoms: _440  and  _443
REMARK  186  A    between atoms: _443  and  _444
REMARK  187  A    between atoms: _447  and  _449
REMARK  188  A    between atoms: _449  and  _450
REMARK  189  A    between atoms: _449  and  _452
REMARK  190  A    between atoms: _452  and  _453
REMARK  191  A    between atoms: _456  and  _458
REMARK  192  A    between atoms: _458  and  _459
REMARK  193  A    between atoms: _458  and  _461
REMARK  194  A    between atoms: _461  and  _462
REMARK  195  A    between atoms: _464  and  _466
REMARK  196  A    between atoms: _466  and  _467
REMARK  197  A    between atoms: _466  and  _469
REMARK  198  A    between atoms: _469  and  _470
REMARK  199  A    between atoms: _480  and  _482
REMARK  200  A    between atoms: _482  and  _483
REMARK  201  A    between atoms: _485  and  _487
REMARK  202  A    between atoms: _487  and  _488
REMARK  203  A    between atoms: _487  and  _490
REMARK  204  A    between atoms: _490  and  _491
REMARK  205  A    between atoms: _491  and  _492
REMARK  206  A    between atoms: _495  and  _497
REMARK  207  A    between atoms: _497  and  _498
REMARK  208  A    between atoms: _500  and  _502
REMARK  209  A    between atoms: _502  and  _503
REMARK  210  A    between atoms: _502  and  _505
REMARK  211  A    between atoms: _505  and  _506
REMARK  212  A    between atoms: _507  and  _509
REMARK  213  A    between atoms: _509  and  _510
REMARK  214  A    between atoms: _513  and  _515
REMARK  215  A    between atoms: _515  and  _516
REMARK  216  A    between atoms: _515  and  _518
REMARK  217  A    between atoms: _518  and  _519
REMARK  218  A    between atoms: _519  and  _520
REMARK  219  A    between atoms: _525  and  _527
REMARK  220  A    between atoms: _527  and  _528
REMARK  221  A    between atoms: _527  and  _530
REMARK  222  A    between atoms: _530  and  _531
REMARK  223  A    between atoms: _531  and  _532
REMARK  224  A    between atoms: _532  and  _533
REMARK  225  A    between atoms: _543  and  _544
REMARK  226  A    between atoms: _549  and  _551
REMARK  227  A    between atoms: _551  and  _552
REMARK  228  A    between atoms: _554  and  _556
REMARK  229  A    between atoms: _556  and  _557
REMARK  230  A    between atoms: _556  and  _559
REMARK  231  A    between atoms: _562  and  _564
REMARK  232  A    between atoms: _564  and  _565
REMARK  233  A    between atoms: _564  and  _567
REMARK  234  A    between atoms: _567  and  _568
REMARK  235  A    between atoms: _573  and  _574
REMARK  236  A    between atoms: _576  and  _578
REMARK  237  A    between atoms: _578  and  _579
REMARK  238  A    between atoms: _578  and  _581
REMARK  239  A    between atoms: _581  and  _582
REMARK                            x       y       z     vdW  Elec       q    Type
REMARK                         _______ _______ _______ _____ _____    ______ ____
ROOT
ATOM      1  O   HOH     1      49.673  13.301  10.786  0.00  0.00    +0.000 OA
ENDROOT
TORSDOF 0
REMARK  Name = ../refined-set-2016/4crf/4crf_pocket.pdb
REMARK  239 active torsions:
REMARK  status: ('A' for Active; 'I' for Inactive)
REMARK    1  A    between atoms: _1  and  _5
REMARK    2  A    between atoms: _5  and  _6
REMARK    3  A    between atoms: _5  and  _8
REMARK    4  A    between atoms: _8  and  _9
REMARK    5  A    between atoms: _12  and  _14
REMARK    6  A    between atoms: _14  and  _15
REMARK    7  A    between atoms: _14  and  _17
REMARK    8  A    between atoms: _20  and  _22
REMARK    9  A    between atoms: _22  and  _23
REMARK   10  A    between atoms: _22  and  _25
REMARK   11  A    between atoms: _25  and  _26
REMARK   12  A    between atoms: _29  and  _31
REMARK   13  A    between atoms: _31  and  _32
REMARK   14  A    between atoms: _31  and  _34
REMARK   15  A    between atoms: _34  and  _35
REMARK   16  A    between atoms: _38  and  _40
REMARK   17  A    between atoms: _40  and  _41
REMARK   18  A    between atoms: _40  and  _43
REMARK   19  A    between atoms: _43  and  _44
REMARK   20  A    between atoms: _47  and  _49
REMARK   21  A    between atoms: _49  and  _50
REMARK   22  A    between atoms: _49  and  _52
REMARK   23  A    between atoms: _52  and  _53
REMARK   24  A    between atoms: _56  and  _58
REMARK   25  A    between atoms: _58  and  _59
REMARK   26  A    between atoms: _58  and  _61
REMARK   27  A    between atoms: _61  and  _62
REMARK   28  A    between atoms: _62  and  _63
REMARK   29  A    between atoms: _68  and  _70
REMARK   30  A    between atoms: _70  and  _71
REMARK   31  A    between atoms: _70  and  _73
REMARK   32  A    between atoms: _73  and  _74
REMARK   33  A    between atoms: _74  and  _75
REMARK   34  A    between atoms: _75  and  _76
REMARK   35  A    between atoms: _85  and  _87
REMARK   36  A    between atoms: _87  and  _88
REMARK   37  A    between atoms: _87  and  _90
REMARK   38  A    between atoms: _90  and  _91
REMARK   39  A    between atoms: _96  and  _98
REMARK   40  A    between atoms: _98  and  _99
REMARK   41  A    between atoms: _98  and  _101
REMARK   42  A    between atoms: _101  and  _102
REMARK   43  A    between atoms: _105  and  _107
REMARK   44  A    between atoms: _107  and  _108
REMARK   45  A    between atoms: _107  and  _110
REMARK   46  A    between atoms: _110  and  _111
REMARK   47  A    between atoms: _111  and  _146
REMARK   48  A    between atoms: _112  and  _114
REMARK   49  A    between atoms: _114  and  _115
REMARK   50  A    between atoms: _117  and  _119
REMARK   51  A    between atoms: _119  and  _120
REMARK   52  A    between atoms: _123  and  _125
REMARK   53  A    between atoms: _125  and  _126
REMARK   54  A    between atoms: _129  and  _131
REMARK   55  A    between atoms: _131  and  _132
REMARK   56  A    between atoms: _131  and  _134
REMARK   57  A    between atoms: _134  and  _135
REMARK   58  A    between atoms: _140  and  _142
REMARK   59  A    between atoms: _142  and  _143
REMARK   60  A    between atoms: _142  and  _145
REMARK   61  A    between atoms: _145  and  _146
REMARK   62  A    between atoms: _147  and  _149
REMARK   63  A    between atoms: _149  and  _150
REMARK   64  A    between atoms: _149  and  _152
REMARK   65  A    between atoms: _152  and  _153
REMARK   66  A    between atoms: _159  and  _161
REMARK   67  A    between atoms: _161  and  _162
REMARK   68  A    between atoms: _161  and  _164
REMARK   69  A    between atoms: _164  and  _165
REMARK   70  A    between atoms: _170  and  _171
REMARK   71  A    between atoms: _173  and  _175
REMARK   72  A    between atoms: _175  and  _176
REMARK   73  A    between atoms: _178  and  _180
REMARK   74  A    between atoms: _180  and  _181
REMARK   75  A    between atoms: _180  and  _183
REMARK   76  A    between atoms: _186  and  _188
REMARK   77  A    between atoms: _188  and  _189
REMARK   78  A    between atoms: _192  and  _194
REMARK   79  A    between atoms: _194  and  _195
REMARK   80  A    between atoms: _194  and  _197
REMARK   81  A    between atoms: _197  and  _198
REMARK   82  A    between atoms: _201  and  _203
REMARK   83  A    between atoms: _203  and  _204
REMARK   84  A    between atoms: _203  and  _206
REMARK   85  A    between atoms: _209  and  _211
REMARK   86  A    between atoms: _211  and  _212
REMARK   87  A    between atoms: _211  and  _214
REMARK   88  A    between atoms: _214  and  _215
REMARK   89  A    between atoms: _225  and  _227
REMARK   90  A    between atoms: _227  and  _228
REMARK   91  A    between atoms: _230  and  _232
REMARK   92  A    between atoms: _232  and  _233
REMARK   93  A    between atoms: _232  and  _235
REMARK   94  A    between atoms: _235  and  _236
REMARK   95  A    between atoms: _241  and  _242
REMARK   96  A    between atoms: _244  and  _246
REMARK   97  A    between atoms: _246  and  _247
REMARK   98  A    between atoms: _246  and  _249
REMARK   99  A    between atoms: _249  and  _250
REMARK  100  A    between atoms: _250  and  _251
REMARK  101  A    between atoms: _251  and  _252
REMARK  102  A    between atoms: _252  and  _253
REMARK  103  A    between atoms: _257  and  _259
REMARK  104  A    between atoms: _259  and  _260
REMARK  105  A    between atoms: _259  and  _262
REMARK  106  A    between atoms: _262  and  _263
REMARK  107  A    between atoms: _266  and  _268
REMARK  108  A    between atoms: _268  and  _269
REMARK  109  A    between atoms: _268  and  _271
REMARK  110  A    between atoms: _271  and  _272
REMARK  111  A    between atoms: _272  and  _273
REMARK  112  A    between atoms: _273  and  _274
REMARK  113  A    between atoms: _283  and  _285
REMARK  114  A    between atoms: _285  and  _286
REMARK  115  A    between atoms: _285  and  _288
REMARK  116  A    between atoms: _288  and  _289
REMARK  117  A    between atoms: _292  and  _294
REMARK  118  A    between atoms: _294  and  _295
REMARK  119  A    between atoms: _294  and  _297
REMARK  120  A    between atoms: _297  and  _298
REMARK  121  A    between atoms: _298  and  _299
REMARK  122  A    between atoms: _299  and  _300
REMARK  123  A    between atoms: _300  and  _301
REMARK  124  A    between atoms: _305  and  _307
REMARK  125  A    between atoms: _307  and  _308
REMARK  126  A    between atoms: _307  and  _310
REMARK  127  A    between atoms: _310  and  _311
REMARK  128  A    between atoms: _314  and  _316
REMARK  129  A    between atoms: _316  and  _317
REMARK  130  A    between atoms: _316  and  _319
REMARK  131  A    between atoms: _319  and  _320
REMARK  132  A    between atoms: _320  and  _321
REMARK  133  A    between atoms: _326  and  _328
REMARK  134  A    between atoms: _328  and  _329
REMARK  135  A    between atoms: _328  and  _331
REMARK  136  A    between atoms: _331  and  _332
REMARK  137  A    between atoms: _335  and  _337
REMARK  138  A    between atoms: _337  and  _338
REMARK  139  A    between atoms: _337  and  _340
REMARK  140  A    between atoms: _340  and  _341
REMARK  141  A    between atoms: _346  and  _347
REMARK  142  A    between atoms: _349  and  _351
REMARK  143  A    between atoms: _351  and  _352
REMARK  144  A    between atoms: _351  and  _354
REMARK  145  A    between atoms: _354  and  _355
REMARK  146  A    between atoms: _358  and  _360
REMARK  147  A    between atoms: _360  and  _361
REMARK  148  A    between atoms: _360  and  _363
REMARK  149  A    between atoms: _365  and  _367
REMARK  150  A    between atoms: _367  and  _368
REMARK  151  A    between atoms: _371  and  _373
REMARK  152  A    between atoms: _373  and  _374
REMARK  153  A    between atoms: _373  and  _376
REMARK  154  A    between atoms: _376  and  _377
REMARK  155  A    between atoms: _380  and  _382
REMARK  156  A    between atoms: _382  and  _383
REMARK  157  A    between atoms: _386  and  _388
REMARK  158  A    between atoms: _388  and  _389
REMARK  159  A    between atoms: _388  and  _391
REMARK  160  A    between atoms: _391  and  _392
REMARK  161  A    between atoms: _392  and  _506
REMARK  162  A    between atoms: _393  and  _395
REMARK  163  A    between atoms: _395  and  _396
REMARK  164  A    between atoms: _395  and  _398
REMARK  165  A    between atoms: _398  and  _399
REMARK  166  A    between atoms: _399  and  _400
REMARK  167  A    between atoms: _400  and  _401
REMARK  168  A    between atoms: _401  and  _402
REMARK  169  A    between atoms: _406  and  _408
REMARK  170  A    between atoms: _408  and  _409
REMARK  171  A    between atoms: _411  and  _413
REMARK  172  A    between atoms: _413  and  _414
REMARK  173  A    between atoms: _413  and  _416
REMARK  174  A    between atoms: _416  and  _417
REMARK  175  A    between atoms: _420  and  _422
REMARK  176  A    between atoms: _422  and  _423
REMARK  177  A    between atoms: _422  and  _425
REMARK  178  A    between atoms: _425  and  _426
REMARK  179  A    between atoms: _428  and  _430
REMARK  180  A    between atoms: _430  and  _431
REMARK  181  A    between atoms: _433  and  _435
REMARK  182  A    between atoms: _435  and  _436
REMARK  183  A    between atoms: _438  and  _440
REMARK  184  A    between atoms: _440  and  _441
REMARK  185  A    between atoms: _440  and  _443
REMARK  186  A    between atoms: _443  and  _444
REMARK  187  A    between atoms: _447  and  _449
REMARK  188  A    between atoms: _449  and  _450
REMARK  189  A    between atoms: _449  and  _452
REMARK  190  A    between atoms: _452  and  _453
REMARK  191  A    between atoms: _456  and  _458
REMARK  192  A    between atoms: _458  and  _459
REMARK  193  A    between atoms: _458  and  _461
REMARK  194  A    between atoms: _461  and  _462
REMARK  195  A    between atoms: _464  and  _466
REMARK  196  A    between atoms: _466  and  _467
REMARK  197  A    between atoms: _466  and  _469
REMARK  198  A    between atoms: _469  and  _470
REMARK  199  A    between atoms: _480  and  _482
REMARK  200  A    between atoms: _482  and  _483
REMARK  201  A    between atoms: _485  and  _487
REMARK  202  A    between atoms: _487  and  _488
REMARK  203  A    between atoms: _487  and  _490
REMARK  204  A    between atoms: _490  and  _491
REMARK  205  A    between atoms: _491  and  _492
REMARK  206  A    between atoms: _495  and  _497
REMARK  207  A    between atoms: _497  and  _498
REMARK  208  A    between atoms: _500  and  _502
REMARK  209  A    between atoms: _502  and  _503
REMARK  210  A    between atoms: _502  and  _505
REMARK  211  A    between atoms: _505  and  _506
REMARK  212  A    between atoms: _507  and  _509
REMARK  213  A    between atoms: _509  and  _510
REMARK  214  A    between atoms: _513  and  _515
REMARK  215  A    between atoms: _515  and  _516
REMARK  216  A    between atoms: _515  and  _518
REMARK  217  A    between atoms: _518  and  _519
REMARK  218  A    between atoms: _519  and  _520
REMARK  219  A    between atoms: _525  and  _527
REMARK  220  A    between atoms: _527  and  _528
REMARK  221  A    between atoms: _527  and  _530
REMARK  222  A    between atoms: _530  and  _531
REMARK  223  A    between atoms: _531  and  _532
REMARK  224  A    between atoms: _532  and  _533
REMARK  225  A    between atoms: _543  and  _544
REMARK  226  A    between atoms: _549  and  _551
REMARK  227  A    between atoms: _551  and  _552
REMARK  228  A    between atoms: _554  and  _556
REMARK  229  A    between atoms: _556  and  _557
REMARK  230  A    between atoms: _556  and  _559
REMARK  231  A    between atoms: _562  and  _564
REMARK  232  A    between atoms: _564  and  _565
REMARK  233  A    between atoms: _564  and  _567
REMARK  234  A    between atoms: _567  and  _568
REMARK  235  A    between atoms: _573  and  _574
REMARK  236  A    between atoms: _576  and  _578
REMARK  237  A    between atoms: _578  and  _579
REMARK  238  A    between atoms: _578  and  _581
REMARK  239  A    between atoms: _581  and  _582
REMARK                            x       y       z     vdW  Elec       q    Type
REMARK                         _______ _______ _______ _____ _____    ______ ____
ROOT
ATOM      1  O   HOH     1      47.902  15.161  12.066  0.00  0.00    +0.000 OA
ENDROOT
TORSDOF 0
REMARK  Name = ../refined-set-2016/4crf/4crf_pocket.pdb
REMARK  239 active torsions:
REMARK  status: ('A' for Active; 'I' for Inactive)
REMARK    1  A    between atoms: _1  and  _5
REMARK    2  A    between atoms: _5  and  _6
REMARK    3  A    between atoms: _5  and  _8
REMARK    4  A    between atoms: _8  and  _9
REMARK    5  A    between atoms: _12  and  _14
REMARK    6  A    between atoms: _14  and  _15
REMARK    7  A    between atoms: _14  and  _17
REMARK    8  A    between atoms: _20  and  _22
REMARK    9  A    between atoms: _22  and  _23
REMARK   10  A    between atoms: _22  and  _25
REMARK   11  A    between atoms: _25  and  _26
REMARK   12  A    between atoms: _29  and  _31
REMARK   13  A    between atoms: _31  and  _32
REMARK   14  A    between atoms: _31  and  _34
REMARK   15  A    between atoms: _34  and  _35
REMARK   16  A    between atoms: _38  and  _40
REMARK   17  A    between atoms: _40  and  _41
REMARK   18  A    between atoms: _40  and  _43
REMARK   19  A    between atoms: _43  and  _44
REMARK   20  A    between atoms: _47  and  _49
REMARK   21  A    between atoms: _49  and  _50
REMARK   22  A    between atoms: _49  and  _52
REMARK   23  A    between atoms: _52  and  _53
REMARK   24  A    between atoms: _56  and  _58
REMARK   25  A    between atoms: _58  and  _59
REMARK   26  A    between atoms: _58  and  _61
REMARK   27  A    between atoms: _61  and  _62
REMARK   28  A    between atoms: _62  and  _63
REMARK   29  A    between atoms: _68  and  _70
REMARK   30  A    between atoms: _70  and  _71
REMARK   31  A    between atoms: _70  and  _73
REMARK   32  A    between atoms: _73  and  _74
REMARK   33  A    between atoms: _74  and  _75
REMARK   34  A    between atoms: _75  and  _76
REMARK   35  A    between atoms: _85  and  _87
REMARK   36  A    between atoms: _87  and  _88
REMARK   37  A    between atoms: _87  and  _90
REMARK   38  A    between atoms: _90  and  _91
REMARK   39  A    between atoms: _96  and  _98
REMARK   40  A    between atoms: _98  and  _99
REMARK   41  A    between atoms: _98  and  _101
REMARK   42  A    between atoms: _101  and  _102
REMARK   43  A    between atoms: _105  and  _107
REMARK   44  A    between atoms: _107  and  _108
REMARK   45  A    between atoms: _107  and  _110
REMARK   46  A    between atoms: _110  and  _111
REMARK   47  A    between atoms: _111  and  _146
REMARK   48  A    between atoms: _112  and  _114
REMARK   49  A    between atoms: _114  and  _115
REMARK   50  A    between atoms: _117  and  _119
REMARK   51  A    between atoms: _119  and  _120
REMARK   52  A    between atoms: _123  and  _125
REMARK   53  A    between atoms: _125  and  _126
REMARK   54  A    between atoms: _129  and  _131
REMARK   55  A    between atoms: _131  and  _132
REMARK   56  A    between atoms: _131  and  _134
REMARK   57  A    between atoms: _134  and  _135
REMARK   58  A    between atoms: _140  and  _142
REMARK   59  A    between atoms: _142  and  _143
REMARK   60  A    between atoms: _142  and  _145
REMARK   61  A    between atoms: _145  and  _146
REMARK   62  A    between atoms: _147  and  _149
REMARK   63  A    between atoms: _149  and  _150
REMARK   64  A    between atoms: _149  and  _152
REMARK   65  A    between atoms: _152  and  _153
REMARK   66  A    between atoms: _159  and  _161
REMARK   67  A    between atoms: _161  and  _162
REMARK   68  A    between atoms: _161  and  _164
REMARK   69  A    between atoms: _164  and  _165
REMARK   70  A    between atoms: _170  and  _171
REMARK   71  A    between atoms: _173  and  _175
REMARK   72  A    between atoms: _175  and  _176
REMARK   73  A    between atoms: _178  and  _180
REMARK   74  A    between atoms: _180  and  _181
REMARK   75  A    between atoms: _180  and  _183
REMARK   76  A    between atoms: _186  and  _188
REMARK   77  A    between atoms: _188  and  _189
REMARK   78  A    between atoms: _192  and  _194
REMARK   79  A    between atoms: _194  and  _195
REMARK   80  A    between atoms: _194  and  _197
REMARK   81  A    between atoms: _197  and  _198
REMARK   82  A    between atoms: _201  and  _203
REMARK   83  A    between atoms: _203  and  _204
REMARK   84  A    between atoms: _203  and  _206
REMARK   85  A    between atoms: _209  and  _211
REMARK   86  A    between atoms: _211  and  _212
REMARK   87  A    between atoms: _211  and  _214
REMARK   88  A    between atoms: _214  and  _215
REMARK   89  A    between atoms: _225  and  _227
REMARK   90  A    between atoms: _227  and  _228
REMARK   91  A    between atoms: _230  and  _232
REMARK   92  A    between atoms: _232  and  _233
REMARK   93  A    between atoms: _232  and  _235
REMARK   94  A    between atoms: _235  and  _236
REMARK   95  A    between atoms: _241  and  _242
REMARK   96  A    between atoms: _244  and  _246
REMARK   97  A    between atoms: _246  and  _247
REMARK   98  A    between atoms: _246  and  _249
REMARK   99  A    between atoms: _249  and  _250
REMARK  100  A    between atoms: _250  and  _251
REMARK  101  A    between atoms: _251  and  _252
REMARK  102  A    between atoms: _252  and  _253
REMARK  103  A    between atoms: _257  and  _259
REMARK  104  A    between atoms: _259  and  _260
REMARK  105  A    between atoms: _259  and  _262
REMARK  106  A    between atoms: _262  and  _263
REMARK  107  A    between atoms: _266  and  _268
REMARK  108  A    between atoms: _268  and  _269
REMARK  109  A    between atoms: _268  and  _271
REMARK  110  A    between atoms: _271  and  _272
REMARK  111  A    between atoms: _272  and  _273
REMARK  112  A    between atoms: _273  and  _274
REMARK  113  A    between atoms: _283  and  _285
REMARK  114  A    between atoms: _285  and  _286
REMARK  115  A    between atoms: _285  and  _288
REMARK  116  A    between atoms: _288  and  _289
REMARK  117  A    between atoms: _292  and  _294
REMARK  118  A    between atoms: _294  and  _295
REMARK  119  A    between atoms: _294  and  _297
REMARK  120  A    between atoms: _297  and  _298
REMARK  121  A    between atoms: _298  and  _299
REMARK  122  A    between atoms: _299  and  _300
REMARK  123  A    between atoms: _300  and  _301
REMARK  124  A    between atoms: _305  and  _307
REMARK  125  A    between atoms: _307  and  _308
REMARK  126  A    between atoms: _307  and  _310
REMARK  127  A    between atoms: _310  and  _311
REMARK  128  A    between atoms: _314  and  _316
REMARK  129  A    between atoms: _316  and  _317
REMARK  130  A    between atoms: _316  and  _319
REMARK  131  A    between atoms: _319  and  _320
REMARK  132  A    between atoms: _320  and  _321
REMARK  133  A    between atoms: _326  and  _328
REMARK  134  A    between atoms: _328  and  _329
REMARK  135  A    between atoms: _328  and  _331
REMARK  136  A    between atoms: _331  and  _332
REMARK  137  A    between atoms: _335  and  _337
REMARK  138  A    between atoms: _337  and  _338
REMARK  139  A    between atoms: _337  and  _340
REMARK  140  A    between atoms: _340  and  _341
REMARK  141  A    between atoms: _346  and  _347
REMARK  142  A    between atoms: _349  and  _351
REMARK  143  A    between atoms: _351  and  _352
REMARK  144  A    between atoms: _351  and  _354
REMARK  145  A    between atoms: _354  and  _355
REMARK  146  A    between atoms: _358  and  _360
REMARK  147  A    between atoms: _360  and  _361
REMARK  148  A    between atoms: _360  and  _363
REMARK  149  A    between atoms: _365  and  _367
REMARK  150  A    between atoms: _367  and  _368
REMARK  151  A    between atoms: _371  and  _373
REMARK  152  A    between atoms: _373  and  _374
REMARK  153  A    between atoms: _373  and  _376
REMARK  154  A    between atoms: _376  and  _377
REMARK  155  A    between atoms: _380  and  _382
REMARK  156  A    between atoms: _382  and  _383
REMARK  157  A    between atoms: _386  and  _388
REMARK  158  A    between atoms: _388  and  _389
REMARK  159  A    between atoms: _388  and  _391
REMARK  160  A    between atoms: _391  and  _392
REMARK  161  A    between atoms: _392  and  _506
REMARK  162  A    between atoms: _393  and  _395
REMARK  163  A    between atoms: _395  and  _396
REMARK  164  A    between atoms: _395  and  _398
REMARK  165  A    between atoms: _398  and  _399
REMARK  166  A    between atoms: _399  and  _400
REMARK  167  A    between atoms: _400  and  _401
REMARK  168  A    between atoms: _401  and  _402
REMARK  169  A    between atoms: _406  and  _408
REMARK  170  A    between atoms: _408  and  _409
REMARK  171  A    between atoms: _411  and  _413
REMARK  172  A    between atoms: _413  and  _414
REMARK  173  A    between atoms: _413  and  _416
REMARK  174  A    between atoms: _416  and  _417
REMARK  175  A    between atoms: _420  and  _422
REMARK  176  A    between atoms: _422  and  _423
REMARK  177  A    between atoms: _422  and  _425
REMARK  178  A    between atoms: _425  and  _426
REMARK  179  A    between atoms: _428  and  _430
REMARK  180  A    between atoms: _430  and  _431
REMARK  181  A    between atoms: _433  and  _435
REMARK  182  A    between atoms: _435  and  _436
REMARK  183  A    between atoms: _438  and  _440
REMARK  184  A    between atoms: _440  and  _441
REMARK  185  A    between atoms: _440  and  _443
REMARK  186  A    between atoms: _443  and  _444
REMARK  187  A    between atoms: _447  and  _449
REMARK  188  A    between atoms: _449  and  _450
REMARK  189  A    between atoms: _449  and  _452
REMARK  190  A    between atoms: _452  and  _453
REMARK  191  A    between atoms: _456  and  _458
REMARK  192  A    between atoms: _458  and  _459
REMARK  193  A    between atoms: _458  and  _461
REMARK  194  A    between atoms: _461  and  _462
REMARK  195  A    between atoms: _464  and  _466
REMARK  196  A    between atoms: _466  and  _467
REMARK  197  A    between atoms: _466  and  _469
REMARK  198  A    between atoms: _469  and  _470
REMARK  199  A    between atoms: _480  and  _482
REMARK  200  A    between atoms: _482  and  _483
REMARK  201  A    between atoms: _485  and  _487
REMARK  202  A    between atoms: _487  and  _488
REMARK  203  A    between atoms: _487  and  _490
REMARK  204  A    between atoms: _490  and  _491
REMARK  205  A    between atoms: _491  and  _492
REMARK  206  A    between atoms: _495  and  _497
REMARK  207  A    between atoms: _497  and  _498
REMARK  208  A    between atoms: _500  and  _502
REMARK  209  A    between atoms: _502  and  _503
REMARK  210  A    between atoms: _502  and  _505
REMARK  211  A    between atoms: _505  and  _506
REMARK  212  A    between atoms: _507  and  _509
REMARK  213  A    between atoms: _509  and  _510
REMARK  214  A    between atoms: _513  and  _515
REMARK  215  A    between atoms: _515  and  _516
REMARK  216  A    between atoms: _515  and  _518
REMARK  217  A    between atoms: _518  and  _519
REMARK  218  A    between atoms: _519  and  _520
REMARK  219  A    between atoms: _525  and  _527
REMARK  220  A    between atoms: _527  and  _528
REMARK  221  A    between atoms: _527  and  _530
REMARK  222  A    between atoms: _530  and  _531
REMARK  223  A    between atoms: _531  and  _532
REMARK  224  A    between atoms: _532  and  _533
REMARK  225  A    between atoms: _543  and  _544
REMARK  226  A    between atoms: _549  and  _551
REMARK  227  A    between atoms: _551  and  _552
REMARK  228  A    between atoms: _554  and  _556
REMARK  229  A    between atoms: _556  and  _557
REMARK  230  A    between atoms: _556  and  _559
REMARK  231  A    between atoms: _562  and  _564
REMARK  232  A    between atoms: _564  and  _565
REMARK  233  A    between atoms: _564  and  _567
REMARK  234  A    between atoms: _567  and  _568
REMARK  235  A    between atoms: _573  and  _574
REMARK  236  A    between atoms: _576  and  _578
REMARK  237  A    between atoms: _578  and  _579
REMARK  238  A    between atoms: _578  and  _581
REMARK  239  A    between atoms: _581  and  _582
REMARK                            x       y       z     vdW  Elec       q    Type
REMARK                         _______ _______ _______ _____ _____    ______ ____
ROOT
ATOM      1  O   HOH     1      52.040  20.579  15.041  0.00  0.00    +0.000 OA
ENDROOT
TORSDOF 0
REMARK  Name = ../refined-set-2016/4crf/4crf_pocket.pdb
REMARK  239 active torsions:
REMARK  status: ('A' for Active; 'I' for Inactive)
REMARK    1  A    between atoms: _1  and  _5
REMARK    2  A    between atoms: _5  and  _6
REMARK    3  A    between atoms: _5  and  _8
REMARK    4  A    between atoms: _8  and  _9
REMARK    5  A    between atoms: _12  and  _14
REMARK    6  A    between atoms: _14  and  _15
REMARK    7  A    between atoms: _14  and  _17
REMARK    8  A    between atoms: _20  and  _22
REMARK    9  A    between atoms: _22  and  _23
REMARK   10  A    between atoms: _22  and  _25
REMARK   11  A    between atoms: _25  and  _26
REMARK   12  A    between atoms: _29  and  _31
REMARK   13  A    between atoms: _31  and  _32
REMARK   14  A    between atoms: _31  and  _34
REMARK   15  A    between atoms: _34  and  _35
REMARK   16  A    between atoms: _38  and  _40
REMARK   17  A    between atoms: _40  and  _41
REMARK   18  A    between atoms: _40  and  _43
REMARK   19  A    between atoms: _43  and  _44
REMARK   20  A    between atoms: _47  and  _49
REMARK   21  A    between atoms: _49  and  _50
REMARK   22  A    between atoms: _49  and  _52
REMARK   23  A    between atoms: _52  and  _53
REMARK   24  A    between atoms: _56  and  _58
REMARK   25  A    between atoms: _58  and  _59
REMARK   26  A    between atoms: _58  and  _61
REMARK   27  A    between atoms: _61  and  _62
REMARK   28  A    between atoms: _62  and  _63
REMARK   29  A    between atoms: _68  and  _70
REMARK   30  A    between atoms: _70  and  _71
REMARK   31  A    between atoms: _70  and  _73
REMARK   32  A    between atoms: _73  and  _74
REMARK   33  A    between atoms: _74  and  _75
REMARK   34  A    between atoms: _75  and  _76
REMARK   35  A    between atoms: _85  and  _87
REMARK   36  A    between atoms: _87  and  _88
REMARK   37  A    between atoms: _87  and  _90
REMARK   38  A    between atoms: _90  and  _91
REMARK   39  A    between atoms: _96  and  _98
REMARK   40  A    between atoms: _98  and  _99
REMARK   41  A    between atoms: _98  and  _101
REMARK   42  A    between atoms: _101  and  _102
REMARK   43  A    between atoms: _105  and  _107
REMARK   44  A    between atoms: _107  and  _108
REMARK   45  A    between atoms: _107  and  _110
REMARK   46  A    between atoms: _110  and  _111
REMARK   47  A    between atoms: _111  and  _146
REMARK   48  A    between atoms: _112  and  _114
REMARK   49  A    between atoms: _114  and  _115
REMARK   50  A    between atoms: _117  and  _119
REMARK   51  A    between atoms: _119  and  _120
REMARK   52  A    between atoms: _123  and  _125
REMARK   53  A    between atoms: _125  and  _126
REMARK   54  A    between atoms: _129  and  _131
REMARK   55  A    between atoms: _131  and  _132
REMARK   56  A    between atoms: _131  and  _134
REMARK   57  A    between atoms: _134  and  _135
REMARK   58  A    between atoms: _140  and  _142
REMARK   59  A    between atoms: _142  and  _143
REMARK   60  A    between atoms: _142  and  _145
REMARK   61  A    between atoms: _145  and  _146
REMARK   62  A    between atoms: _147  and  _149
REMARK   63  A    between atoms: _149  and  _150
REMARK   64  A    between atoms: _149  and  _152
REMARK   65  A    between atoms: _152  and  _153
REMARK   66  A    between atoms: _159  and  _161
REMARK   67  A    between atoms: _161  and  _162
REMARK   68  A    between atoms: _161  and  _164
REMARK   69  A    between atoms: _164  and  _165
REMARK   70  A    between atoms: _170  and  _171
REMARK   71  A    between atoms: _173  and  _175
REMARK   72  A    between atoms: _175  and  _176
REMARK   73  A    between atoms: _178  and  _180
REMARK   74  A    between atoms: _180  and  _181
REMARK   75  A    between atoms: _180  and  _183
REMARK   76  A    between atoms: _186  and  _188
REMARK   77  A    between atoms: _188  and  _189
REMARK   78  A    between atoms: _192  and  _194
REMARK   79  A    between atoms: _194  and  _195
REMARK   80  A    between atoms: _194  and  _197
REMARK   81  A    between atoms: _197  and  _198
REMARK   82  A    between atoms: _201  and  _203
REMARK   83  A    between atoms: _203  and  _204
REMARK   84  A    between atoms: _203  and  _206
REMARK   85  A    between atoms: _209  and  _211
REMARK   86  A    between atoms: _211  and  _212
REMARK   87  A    between atoms: _211  and  _214
REMARK   88  A    between atoms: _214  and  _215
REMARK   89  A    between atoms: _225  and  _227
REMARK   90  A    between atoms: _227  and  _228
REMARK   91  A    between atoms: _230  and  _232
REMARK   92  A    between atoms: _232  and  _233
REMARK   93  A    between atoms: _232  and  _235
REMARK   94  A    between atoms: _235  and  _236
REMARK   95  A    between atoms: _241  and  _242
REMARK   96  A    between atoms: _244  and  _246
REMARK   97  A    between atoms: _246  and  _247
REMARK   98  A    between atoms: _246  and  _249
REMARK   99  A    between atoms: _249  and  _250
REMARK  100  A    between atoms: _250  and  _251
REMARK  101  A    between atoms: _251  and  _252
REMARK  102  A    between atoms: _252  and  _253
REMARK  103  A    between atoms: _257  and  _259
REMARK  104  A    between atoms: _259  and  _260
REMARK  105  A    between atoms: _259  and  _262
REMARK  106  A    between atoms: _262  and  _263
REMARK  107  A    between atoms: _266  and  _268
REMARK  108  A    between atoms: _268  and  _269
REMARK  109  A    between atoms: _268  and  _271
REMARK  110  A    between atoms: _271  and  _272
REMARK  111  A    between atoms: _272  and  _273
REMARK  112  A    between atoms: _273  and  _274
REMARK  113  A    between atoms: _283  and  _285
REMARK  114  A    between atoms: _285  and  _286
REMARK  115  A    between atoms: _285  and  _288
REMARK  116  A    between atoms: _288  and  _289
REMARK  117  A    between atoms: _292  and  _294
REMARK  118  A    between atoms: _294  and  _295
REMARK  119  A    between atoms: _294  and  _297
REMARK  120  A    between atoms: _297  and  _298
REMARK  121  A    between atoms: _298  and  _299
REMARK  122  A    between atoms: _299  and  _300
REMARK  123  A    between atoms: _300  and  _301
REMARK  124  A    between atoms: _305  and  _307
REMARK  125  A    between atoms: _307  and  _308
REMARK  126  A    between atoms: _307  and  _310
REMARK  127  A    between atoms: _310  and  _311
REMARK  128  A    between atoms: _314  and  _316
REMARK  129  A    between atoms: _316  and  _317
REMARK  130  A    between atoms: _316  and  _319
REMARK  131  A    between atoms: _319  and  _320
REMARK  132  A    between atoms: _320  and  _321
REMARK  133  A    between atoms: _326  and  _328
REMARK  134  A    between atoms: _328  and  _329
REMARK  135  A    between atoms: _328  and  _331
REMARK  136  A    between atoms: _331  and  _332
REMARK  137  A    between atoms: _335  and  _337
REMARK  138  A    between atoms: _337  and  _338
REMARK  139  A    between atoms: _337  and  _340
REMARK  140  A    between atoms: _340  and  _341
REMARK  141  A    between atoms: _346  and  _347
REMARK  142  A    between atoms: _349  and  _351
REMARK  143  A    between atoms: _351  and  _352
REMARK  144  A    between atoms: _351  and  _354
REMARK  145  A    between atoms: _354  and  _355
REMARK  146  A    between atoms: _358  and  _360
REMARK  147  A    between atoms: _360  and  _361
REMARK  148  A    between atoms: _360  and  _363
REMARK  149  A    between atoms: _365  and  _367
REMARK  150  A    between atoms: _367  and  _368
REMARK  151  A    between atoms: _371  and  _373
REMARK  152  A    between atoms: _373  and  _374
REMARK  153  A    between atoms: _373  and  _376
REMARK  154  A    between atoms: _376  and  _377
REMARK  155  A    between atoms: _380  and  _382
REMARK  156  A    between atoms: _382  and  _383
REMARK  157  A    between atoms: _386  and  _388
REMARK  158  A    between atoms: _388  and  _389
REMARK  159  A    between atoms: _388  and  _391
REMARK  160  A    between atoms: _391  and  _392
REMARK  161  A    between atoms: _392  and  _506
REMARK  162  A    between atoms: _393  and  _395
REMARK  163  A    between atoms: _395  and  _396
REMARK  164  A    between atoms: _395  and  _398
REMARK  165  A    between atoms: _398  and  _399
REMARK  166  A    between atoms: _399  and  _400
REMARK  167  A    between atoms: _400  and  _401
REMARK  168  A    between atoms: _401  and  _402
REMARK  169  A    between atoms: _406  and  _408
REMARK  170  A    between atoms: _408  and  _409
REMARK  171  A    between atoms: _411  and  _413
REMARK  172  A    between atoms: _413  and  _414
REMARK  173  A    between atoms: _413  and  _416
REMARK  174  A    between atoms: _416  and  _417
REMARK  175  A    between atoms: _420  and  _422
REMARK  176  A    between atoms: _422  and  _423
REMARK  177  A    between atoms: _422  and  _425
REMARK  178  A    between atoms: _425  and  _426
REMARK  179  A    between atoms: _428  and  _430
REMARK  180  A    between atoms: _430  and  _431
REMARK  181  A    between atoms: _433  and  _435
REMARK  182  A    between atoms: _435  and  _436
REMARK  183  A    between atoms: _438  and  _440
REMARK  184  A    between atoms: _440  and  _441
REMARK  185  A    between atoms: _440  and  _443
REMARK  186  A    between atoms: _443  and  _444
REMARK  187  A    between atoms: _447  and  _449
REMARK  188  A    between atoms: _449  and  _450
REMARK  189  A    between atoms: _449  and  _452
REMARK  190  A    between atoms: _452  and  _453
REMARK  191  A    between atoms: _456  and  _458
REMARK  192  A    between atoms: _458  and  _459
REMARK  193  A    between atoms: _458  and  _461
REMARK  194  A    between atoms: _461  and  _462
REMARK  195  A    between atoms: _464  and  _466
REMARK  196  A    between atoms: _466  and  _467
REMARK  197  A    between atoms: _466  and  _469
REMARK  198  A    between atoms: _469  and  _470
REMARK  199  A    between atoms: _480  and  _482
REMARK  200  A    between atoms: _482  and  _483
REMARK  201  A    between atoms: _485  and  _487
REMARK  202  A    between atoms: _487  and  _488
REMARK  203  A    between atoms: _487  and  _490
REMARK  204  A    between atoms: _490  and  _491
REMARK  205  A    between atoms: _491  and  _492
REMARK  206  A    between atoms: _495  and  _497
REMARK  207  A    between atoms: _497  and  _498
REMARK  208  A    between atoms: _500  and  _502
REMARK  209  A    between atoms: _502  and  _503
REMARK  210  A    between atoms: _502  and  _505
REMARK  211  A    between atoms: _505  and  _506
REMARK  212  A    between atoms: _507  and  _509
REMARK  213  A    between atoms: _509  and  _510
REMARK  214  A    between atoms: _513  and  _515
REMARK  215  A    between atoms: _515  and  _516
REMARK  216  A    between atoms: _515  and  _518
REMARK  217  A    between atoms: _518  and  _519
REMARK  218  A    between atoms: _519  and  _520
REMARK  219  A    between atoms: _525  and  _527
REMARK  220  A    between atoms: _527  and  _528
REMARK  221  A    between atoms: _527  and  _530
REMARK  222  A    between atoms: _530  and  _531
REMARK  223  A    between atoms: _531  and  _532
REMARK  224  A    between atoms: _532  and  _533
REMARK  225  A    between atoms: _543  and  _544
REMARK  226  A    between atoms: _549  and  _551
REMARK  227  A    between atoms: _551  and  _552
REMARK  228  A    between atoms: _554  and  _556
REMARK  229  A    between atoms: _556  and  _557
REMARK  230  A    between atoms: _556  and  _559
REMARK  231  A    between atoms: _562  and  _564
REMARK  232  A    between atoms: _564  and  _565
REMARK  233  A    between atoms: _564  and  _567
REMARK  234  A    between atoms: _567  and  _568
REMARK  235  A    between atoms: _573  and  _574
REMARK  236  A    between atoms: _576  and  _578
REMARK  237  A    between atoms: _578  and  _579
REMARK  238  A    between atoms: _578  and  _581
REMARK  239  A    between atoms: _581  and  _582
REMARK                            x       y       z     vdW  Elec       q    Type
REMARK                         _______ _______ _______ _____ _____    ______ ____
ROOT
ATOM      1  O   HOH     1      45.651  12.284   9.604  0.00  0.00    +0.000 OA
ENDROOT
TORSDOF 0
