REMARK  Name = ../refined-set-2016/3v5t/3v5t_pocket.pdb
REMARK  232 active torsions:
REMARK  status: ('A' for Active; 'I' for Inactive)
REMARK    1  A    between atoms: _1  and  _3
REMARK    2  A    between atoms: _3  and  _4
REMARK    3  A    between atoms: _3  and  _6
REMARK    4  A    between atoms: _6  and  _7
REMARK    5  A    between atoms: _7  and  _8
REMARK    6  A    between atoms: _8  and  _9
REMARK    7  A    between atoms: _18  and  _20
REMARK    8  A    between atoms: _20  and  _21
REMARK    9  A    between atoms: _20  and  _23
REMARK   10  A    between atoms: _26  and  _28
REMARK   11  A    between atoms: _28  and  _29
REMARK   12  A    between atoms: _28  and  _31
REMARK   13  A    between atoms: _31  and  _32
REMARK   14  A    between atoms: _35  and  _37
REMARK   15  A    between atoms: _37  and  _38
REMARK   16  A    between atoms: _40  and  _42
REMARK   17  A    between atoms: _42  and  _43
REMARK   18  A    between atoms: _42  and  _45
REMARK   19  A    between atoms: _45  and  _46
REMARK   20  A    between atoms: _46  and  _47
REMARK   21  A    between atoms: _47  and  _48
REMARK   22  A    between atoms: _48  and  _49
REMARK   23  A    between atoms: _53  and  _55
REMARK   24  A    between atoms: _55  and  _56
REMARK   25  A    between atoms: _58  and  _60
REMARK   26  A    between atoms: _60  and  _61
REMARK   27  A    between atoms: _60  and  _63
REMARK   28  A    between atoms: _63  and  _64
REMARK   29  A    between atoms: _66  and  _68
REMARK   30  A    between atoms: _68  and  _69
REMARK   31  A    between atoms: _71  and  _73
REMARK   32  A    between atoms: _73  and  _74
REMARK   33  A    between atoms: _73  and  _76
REMARK   34  A    between atoms: _76  and  _77
REMARK   35  A    between atoms: _77  and  _78
REMARK   36  A    between atoms: _81  and  _83
REMARK   37  A    between atoms: _83  and  _84
REMARK   38  A    between atoms: _83  and  _86
REMARK   39  A    between atoms: _89  and  _91
REMARK   40  A    between atoms: _91  and  _92
REMARK   41  A    between atoms: _91  and  _94
REMARK   42  A    between atoms: _94  and  _95
REMARK   43  A    between atoms: _98  and  _100
REMARK   44  A    between atoms: _100  and  _101
REMARK   45  A    between atoms: _100  and  _103
REMARK   46  A    between atoms: _103  and  _104
REMARK   47  A    between atoms: _107  and  _109
REMARK   48  A    between atoms: _109  and  _110
REMARK   49  A    between atoms: _109  and  _112
REMARK   50  A    between atoms: _114  and  _116
REMARK   51  A    between atoms: _116  and  _117
REMARK   52  A    between atoms: _120  and  _122
REMARK   53  A    between atoms: _122  and  _123
REMARK   54  A    between atoms: _122  and  _125
REMARK   55  A    between atoms: _128  and  _130
REMARK   56  A    between atoms: _130  and  _131
REMARK   57  A    between atoms: _130  and  _133
REMARK   58  A    between atoms: _133  and  _134
REMARK   59  A    between atoms: _134  and  _135
REMARK   60  A    between atoms: _135  and  _136
REMARK   61  A    between atoms: _136  and  _137
REMARK   62  A    between atoms: _141  and  _143
REMARK   63  A    between atoms: _143  and  _144
REMARK   64  A    between atoms: _143  and  _146
REMARK   65  A    between atoms: _149  and  _151
REMARK   66  A    between atoms: _151  and  _152
REMARK   67  A    between atoms: _151  and  _154
REMARK   68  A    between atoms: _154  and  _155
REMARK   69  A    between atoms: _158  and  _160
REMARK   70  A    between atoms: _160  and  _161
REMARK   71  A    between atoms: _160  and  _163
REMARK   72  A    between atoms: _163  and  _164
REMARK   73  A    between atoms: _164  and  _165
REMARK   74  A    between atoms: _168  and  _170
REMARK   75  A    between atoms: _170  and  _171
REMARK   76  A    between atoms: _170  and  _173
REMARK   77  A    between atoms: _176  and  _178
REMARK   78  A    between atoms: _178  and  _179
REMARK   79  A    between atoms: _178  and  _181
REMARK   80  A    between atoms: _181  and  _182
REMARK   81  A    between atoms: _185  and  _187
REMARK   82  A    between atoms: _187  and  _188
REMARK   83  A    between atoms: _187  and  _190
REMARK   84  A    between atoms: _190  and  _191
REMARK   85  A    between atoms: _191  and  _192
REMARK   86  A    between atoms: _194  and  _196
REMARK   87  A    between atoms: _196  and  _197
REMARK   88  A    between atoms: _196  and  _199
REMARK   89  A    between atoms: _199  and  _200
REMARK   90  A    between atoms: _200  and  _201
REMARK   91  A    between atoms: _201  and  _202
REMARK   92  A    between atoms: _202  and  _203
REMARK   93  A    between atoms: _207  and  _209
REMARK   94  A    between atoms: _209  and  _210
REMARK   95  A    between atoms: _209  and  _212
REMARK   96  A    between atoms: _212  and  _213
REMARK   97  A    between atoms: _216  and  _218
REMARK   98  A    between atoms: _218  and  _219
REMARK   99  A    between atoms: _218  and  _221
REMARK  100  A    between atoms: _221  and  _222
REMARK  101  A    between atoms: _227  and  _228
REMARK  102  A    between atoms: _230  and  _232
REMARK  103  A    between atoms: _232  and  _233
REMARK  104  A    between atoms: _232  and  _235
REMARK  105  A    between atoms: _235  and  _236
REMARK  106  A    between atoms: _236  and  _237
REMARK  107  A    between atoms: _240  and  _242
REMARK  108  A    between atoms: _242  and  _243
REMARK  109  A    between atoms: _242  and  _245
REMARK  110  A    between atoms: _245  and  _246
REMARK  111  A    between atoms: _252  and  _254
REMARK  112  A    between atoms: _254  and  _255
REMARK  113  A    between atoms: _254  and  _257
REMARK  114  A    between atoms: _257  and  _258
REMARK  115  A    between atoms: _263  and  _264
REMARK  116  A    between atoms: _266  and  _268
REMARK  117  A    between atoms: _268  and  _269
REMARK  118  A    between atoms: _268  and  _271
REMARK  119  A    between atoms: _271  and  _272
REMARK  120  A    between atoms: _275  and  _277
REMARK  121  A    between atoms: _277  and  _278
REMARK  122  A    between atoms: _277  and  _280
REMARK  123  A    between atoms: _283  and  _285
REMARK  124  A    between atoms: _285  and  _286
REMARK  125  A    between atoms: _288  and  _290
REMARK  126  A    between atoms: _290  and  _291
REMARK  127  A    between atoms: _290  and  _293
REMARK  128  A    between atoms: _293  and  _294
REMARK  129  A    between atoms: _294  and  _295
REMARK  130  A    between atoms: _298  and  _300
REMARK  131  A    between atoms: _300  and  _301
REMARK  132  A    between atoms: _300  and  _303
REMARK  133  A    between atoms: _306  and  _308
REMARK  134  A    between atoms: _308  and  _309
REMARK  135  A    between atoms: _308  and  _311
REMARK  136  A    between atoms: _311  and  _312
REMARK  137  A    between atoms: _317  and  _318
REMARK  138  A    between atoms: _320  and  _322
REMARK  139  A    between atoms: _322  and  _323
REMARK  140  A    between atoms: _322  and  _325
REMARK  141  A    between atoms: _325  and  _326
REMARK  142  A    between atoms: _329  and  _331
REMARK  143  A    between atoms: _331  and  _332
REMARK  144  A    between atoms: _334  and  _336
REMARK  145  A    between atoms: _336  and  _337
REMARK  146  A    between atoms: _339  and  _341
REMARK  147  A    between atoms: _341  and  _342
REMARK  148  A    between atoms: _341  and  _344
REMARK  149  A    between atoms: _344  and  _345
REMARK  150  A    between atoms: _345  and  _346
REMARK  151  A    between atoms: _349  and  _351
REMARK  152  A    between atoms: _351  and  _352
REMARK  153  A    between atoms: _351  and  _354
REMARK  154  A    between atoms: _354  and  _355
REMARK  155  A    between atoms: _358  and  _360
REMARK  156  A    between atoms: _360  and  _361
REMARK  157  A    between atoms: _360  and  _363
REMARK  158  A    between atoms: _363  and  _364
REMARK  159  A    between atoms: _367  and  _369
REMARK  160  A    between atoms: _369  and  _370
REMARK  161  A    between atoms: _369  and  _372
REMARK  162  A    between atoms: _372  and  _373
REMARK  163  A    between atoms: _373  and  _374
REMARK  164  A    between atoms: _377  and  _379
REMARK  165  A    between atoms: _379  and  _380
REMARK  166  A    between atoms: _379  and  _382
REMARK  167  A    between atoms: _382  and  _383
REMARK  168  A    between atoms: _388  and  _390
REMARK  169  A    between atoms: _390  and  _391
REMARK  170  A    between atoms: _390  and  _393
REMARK  171  A    between atoms: _393  and  _394
REMARK  172  A    between atoms: _397  and  _399
REMARK  173  A    between atoms: _399  and  _400
REMARK  174  A    between atoms: _399  and  _402
REMARK  175  A    between atoms: _402  and  _403
REMARK  176  A    between atoms: _406  and  _408
REMARK  177  A    between atoms: _408  and  _409
REMARK  178  A    between atoms: _408  and  _411
REMARK  179  A    between atoms: _411  and  _412
REMARK  180  A    between atoms: _415  and  _417
REMARK  181  A    between atoms: _417  and  _418
REMARK  182  A    between atoms: _417  and  _420
REMARK  183  A    between atoms: _420  and  _421
REMARK  184  A    between atoms: _421  and  _422
REMARK  185  A    between atoms: _425  and  _427
REMARK  186  A    between atoms: _427  and  _428
REMARK  187  A    between atoms: _427  and  _430
REMARK  188  A    between atoms: _430  and  _431
REMARK  189  A    between atoms: _431  and  _432
REMARK  190  A    between atoms: _432  and  _433
REMARK  191  A    between atoms: _442  and  _444
REMARK  192  A    between atoms: _444  and  _445
REMARK  193  A    between atoms: _444  and  _447
REMARK  194  A    between atoms: _447  and  _448
REMARK  195  A    between atoms: _451  and  _453
REMARK  196  A    between atoms: _453  and  _454
REMARK  197  A    between atoms: _453  and  _456
REMARK  198  A    between atoms: _456  and  _457
REMARK  199  A    between atoms: _460  and  _462
REMARK  200  A    between atoms: _462  and  _463
REMARK  201  A    between atoms: _462  and  _465
REMARK  202  A    between atoms: _465  and  _466
REMARK  203  A    between atoms: _469  and  _471
REMARK  204  A    between atoms: _471  and  _472
REMARK  205  A    between atoms: _471  and  _474
REMARK  206  A    between atoms: _474  and  _475
REMARK  207  A    between atoms: _481  and  _483
REMARK  208  A    between atoms: _483  and  _484
REMARK  209  A    between atoms: _486  and  _488
REMARK  210  A    between atoms: _488  and  _489
REMARK  211  A    between atoms: _488  and  _491
REMARK  212  A    between atoms: _491  and  _492
REMARK  213  A    between atoms: _495  and  _497
REMARK  214  A    between atoms: _497  and  _498
REMARK  215  A    between atoms: _497  and  _500
REMARK  216  A    between atoms: _500  and  _501
REMARK  217  A    between atoms: _503  and  _505
REMARK  218  A    between atoms: _505  and  _506
REMARK  219  A    between atoms: _505  and  _508
REMARK  220  A    between atoms: _508  and  _509
REMARK  221  A    between atoms: _515  and  _517
REMARK  222  A    between atoms: _517  and  _518
REMARK  223  A    between atoms: _517  and  _520
REMARK  224  A    between atoms: _520  and  _521
REMARK  225  A    between atoms: _521  and  _522
REMARK  226  A    between atoms: _522  and  _523
REMARK  227  A    between atoms: _523  and  _524
REMARK  228  A    between atoms: _528  and  _530
REMARK  229  A    between atoms: _530  and  _531
REMARK  230  A    between atoms: _530  and  _533
REMARK  231  A    between atoms: _533  and  _534
REMARK  232  A    between atoms: _534  and  _535
REMARK                            x       y       z     vdW  Elec       q    Type
REMARK                         _______ _______ _______ _____ _____    ______ ____
ROOT
ATOM      1  C   LEU A   3      21.506  18.298  65.458  0.00  0.00    +0.241 C 
ATOM      2  N   GLY A   4      21.141  19.421  66.069  0.00  0.00    -0.295 N 
ATOM      3  H   GLY A   4      21.033  19.414  67.103  0.00  0.00    +0.150 HD
ATOM      4  O   LEU A   3      21.494  18.169  64.229  0.00  0.00    -0.273 OA
ENDROOT
BRANCH   2   5
ATOM      5  CA  GLY A   4      20.887  20.655  65.350  0.00  0.00    +0.176 C 
BRANCH   5   6
ATOM      6  C   GLY A   4      19.514  21.239  65.614  0.00  0.00    +0.243 C 
ATOM      7  O   GLY A   4      18.752  20.733  66.432  0.00  0.00    -0.273 OA
ATOM      8  N   LYS A   5      19.227  22.337  64.923  0.00  0.00    -0.297 N 
ATOM      9  H   LYS A   5      19.934  22.703  64.254  0.00  0.00    +0.150 HD
BRANCH   8  10
ATOM     10  CA  LYS A   5      17.976  23.044  65.061  0.00  0.00    +0.149 C 
BRANCH  10  11
ATOM     11  C   LYS A   5      17.101  22.582  63.915  0.00  0.00    +0.241 C 
ATOM     12  N   GLY A   6      15.897  22.123  64.232  0.00  0.00    -0.295 N 
ATOM     13  H   GLY A   6      15.633  22.043  65.235  0.00  0.00    +0.150 HD
ATOM     14  O   LYS A   5      17.523  22.596  62.770  0.00  0.00    -0.273 OA
BRANCH  12  15
ATOM     15  CA  GLY A   6      14.938  21.729  63.212  0.00  0.00    +0.176 C 
BRANCH  15  16
ATOM     16  C   GLY A   6      13.788  22.694  63.279  0.00  0.00    +0.243 C 
ATOM     17  O   GLY A   6      13.842  23.671  64.022  0.00  0.00    -0.273 OA
ATOM     18  N   SER A   7      12.744  22.435  62.506  0.00  0.00    -0.296 N 
ATOM     19  H   SER A   7      12.791  21.653  61.822  0.00  0.00    +0.150 HD
BRANCH  18  20
ATOM     20  CA  SER A   7      11.529  23.235  62.605  0.00  0.00    +0.166 C 
BRANCH  20  21
ATOM     21  CB  SER A   7      10.929  23.085  64.002  0.00  0.00    +0.229 C 
ATOM     22  OG  SER A   7      10.833  21.976  64.532  0.00  0.00    -0.286 OA
ENDBRANCH  20  21
BRANCH  20  23
ATOM     23  C   SER A   7      10.505  22.807  61.547  0.00  0.00    +0.165 C 
BRANCH  23  24
ATOM     24  O   SER A   7      11.030  22.914  60.228  0.00  0.00    -0.380 OA
ATOM     25  H   SER A   7      10.341  22.630  59.576  0.00  0.00    +0.211 HD
ENDBRANCH  23  24
ENDBRANCH  20  23
ENDBRANCH  18  20
ENDBRANCH  15  16
ENDBRANCH  12  15
ENDBRANCH  10  11
BRANCH  10  26
ATOM     26  CB  LYS A   5      18.218  24.557  65.014  0.00  0.00    +0.029 C 
BRANCH  26  27
ATOM     27  CG  LYS A   5      16.975  25.437  65.137  0.00  0.00    +0.000 C 
BRANCH  27  28
ATOM     28  CD  LYS A   5      16.066  25.023  66.289  0.00  0.00    -0.024 C 
BRANCH  28  29
ATOM     29  CE  LYS A   5      14.946  26.027  66.555  0.00  0.00    -0.086 C 
BRANCH  29  30
ATOM     30  NZ  LYS A   5      15.173  26.792  67.816  0.00  0.00    +0.380 N 
ATOM     31  HZ1 LYS A   5      15.216  26.131  68.618  0.00  0.00    -0.089 HD
ATOM     32  HZ2 LYS A   5      14.391  27.462  67.959  0.00  0.00    -0.089 HD
ATOM     33  HZ3 LYS A   5      16.070  27.314  67.747  0.00  0.00    -0.089 HD
ENDBRANCH  29  30
ENDBRANCH  28  29
ENDBRANCH  27  28
ENDBRANCH  26  27
ENDBRANCH  10  26
ENDBRANCH   8  10
ENDBRANCH   5   6
ENDBRANCH   2   5
BRANCH   1  34
ATOM     34  CA  LEU A   3      21.927  17.131  66.355  0.00  0.00    +0.149 C 
BRANCH  34  37
ATOM     35  C   VAL A   2      23.006  17.606  68.516  0.00  0.00    +0.241 C 
ATOM     36  O   VAL A   2      24.132  17.372  68.078  0.00  0.00    -0.273 OA
ATOM     37  N   LEU A   3      21.901  17.491  67.779  0.00  0.00    -0.297 N 
ATOM     38  H   LEU A   3      20.981  17.664  68.232  0.00  0.00    +0.150 HD
BRANCH  35  39
ATOM     39  CA  VAL A   2      22.812  18.009  69.989  0.00  0.00    +0.148 C 
BRANCH  39  42
ATOM     40  C   ARG A   1      23.508  16.003  71.202  0.00  0.00    +0.238 C 
ATOM     41  O   ARG A   1      22.487  15.406  70.904  0.00  0.00    -0.274 OA
ATOM     42  N   VAL A   2      23.743  17.259  70.831  0.00  0.00    -0.297 N 
ATOM     43  H   VAL A   2      24.618  17.723  71.150  0.00  0.00    +0.150 HD
BRANCH  40  44
ATOM     44  CA  ARG A   1      24.596  15.313  72.031  0.00  0.00    +0.145 C 
BRANCH  44  45
ATOM     45  N   ARG A   1      24.095  14.176  72.801  0.00  0.00    -0.238 NA
ATOM     46  H   ARG A   1      23.144  13.812  72.592  0.00  0.00    +0.142 HD
ENDBRANCH  44  45
BRANCH  44  47
ATOM     47  CB  ARG A   1      25.722  14.852  71.103  0.00  0.00    +0.030 C 
BRANCH  47  48
ATOM     48  CG  ARG A   1      25.356  13.677  70.224  0.00  0.00    +0.045 C 
BRANCH  48  49
ATOM     49  CD  ARG A   1      26.578  12.938  69.691  0.00  0.00    +0.174 C 
BRANCH  49  50
ATOM     50  NE  ARG A   1      26.235  12.178  68.484  0.00  0.00    -0.265 N 
ATOM     51  HE  ARG A   1      26.086  11.154  68.585  0.00  0.00    +0.259 HD
ATOM     52  CZ  ARG A   1      26.101  12.706  67.267  0.00  0.00    +0.342 C 
ATOM     53  NH2 ARG A   1      26.285  14.010  67.066  0.00  0.00    -0.292 N 
ATOM     54 HH21 ARG A   1      26.536  14.629  67.863  0.00  0.00    +0.255 HD
ATOM     55 HH22 ARG A   1      26.177  14.409  66.112  0.00  0.00    +0.255 HD
ATOM     56  NH1 ARG A   1      25.770  11.930  66.238  0.00  0.00    -0.292 N 
ATOM     57 HH11 ARG A   1      25.616  10.912  66.383  0.00  0.00    +0.255 HD
ATOM     58 HH12 ARG A   1      25.665  12.342  65.289  0.00  0.00    +0.255 HD
ENDBRANCH  49  50
ENDBRANCH  48  49
ENDBRANCH  47  48
ENDBRANCH  44  47
ENDBRANCH  40  44
ENDBRANCH  39  42
BRANCH  39  59
ATOM     59  CB  VAL A   2      22.983  19.537  70.166  0.00  0.00    +0.027 C 
ATOM     60  CG2 VAL A   2      22.768  19.936  71.623  0.00  0.00    +0.002 C 
ATOM     61  CG1 VAL A   2      22.009  20.305  69.286  0.00  0.00    +0.002 C 
ENDBRANCH  39  59
ENDBRANCH  35  39
ENDBRANCH  34  37
BRANCH  34  62
ATOM     62  CB  LEU A   3      21.010  15.933  66.087  0.00  0.00    +0.029 C 
BRANCH  62  63
ATOM     63  CG  LEU A   3      21.317  14.616  66.803  0.00  0.00    +0.002 C 
ATOM     64  CD2 LEU A   3      20.077  13.740  66.862  0.00  0.00    +0.000 C 
ATOM     65  CD1 LEU A   3      22.457  13.882  66.118  0.00  0.00    +0.000 C 
ENDBRANCH  62  63
ENDBRANCH  34  62
ENDBRANCH   1  34
TORSDOF 28
REMARK  Name = ../refined-set-2016/3v5t/3v5t_pocket.pdb
REMARK  232 active torsions:
REMARK  status: ('A' for Active; 'I' for Inactive)
REMARK    1  A    between atoms: _1  and  _3
REMARK    2  A    between atoms: _3  and  _4
REMARK    3  A    between atoms: _3  and  _6
REMARK    4  A    between atoms: _6  and  _7
REMARK    5  A    between atoms: _7  and  _8
REMARK    6  A    between atoms: _8  and  _9
REMARK    7  A    between atoms: _18  and  _20
REMARK    8  A    between atoms: _20  and  _21
REMARK    9  A    between atoms: _20  and  _23
REMARK   10  A    between atoms: _26  and  _28
REMARK   11  A    between atoms: _28  and  _29
REMARK   12  A    between atoms: _28  and  _31
REMARK   13  A    between atoms: _31  and  _32
REMARK   14  A    between atoms: _35  and  _37
REMARK   15  A    between atoms: _37  and  _38
REMARK   16  A    between atoms: _40  and  _42
REMARK   17  A    between atoms: _42  and  _43
REMARK   18  A    between atoms: _42  and  _45
REMARK   19  A    between atoms: _45  and  _46
REMARK   20  A    between atoms: _46  and  _47
REMARK   21  A    between atoms: _47  and  _48
REMARK   22  A    between atoms: _48  and  _49
REMARK   23  A    between atoms: _53  and  _55
REMARK   24  A    between atoms: _55  and  _56
REMARK   25  A    between atoms: _58  and  _60
REMARK   26  A    between atoms: _60  and  _61
REMARK   27  A    between atoms: _60  and  _63
REMARK   28  A    between atoms: _63  and  _64
REMARK   29  A    between atoms: _66  and  _68
REMARK   30  A    between atoms: _68  and  _69
REMARK   31  A    between atoms: _71  and  _73
REMARK   32  A    between atoms: _73  and  _74
REMARK   33  A    between atoms: _73  and  _76
REMARK   34  A    between atoms: _76  and  _77
REMARK   35  A    between atoms: _77  and  _78
REMARK   36  A    between atoms: _81  and  _83
REMARK   37  A    between atoms: _83  and  _84
REMARK   38  A    between atoms: _83  and  _86
REMARK   39  A    between atoms: _89  and  _91
REMARK   40  A    between atoms: _91  and  _92
REMARK   41  A    between atoms: _91  and  _94
REMARK   42  A    between atoms: _94  and  _95
REMARK   43  A    between atoms: _98  and  _100
REMARK   44  A    between atoms: _100  and  _101
REMARK   45  A    between atoms: _100  and  _103
REMARK   46  A    between atoms: _103  and  _104
REMARK   47  A    between atoms: _107  and  _109
REMARK   48  A    between atoms: _109  and  _110
REMARK   49  A    between atoms: _109  and  _112
REMARK   50  A    between atoms: _114  and  _116
REMARK   51  A    between atoms: _116  and  _117
REMARK   52  A    between atoms: _120  and  _122
REMARK   53  A    between atoms: _122  and  _123
REMARK   54  A    between atoms: _122  and  _125
REMARK   55  A    between atoms: _128  and  _130
REMARK   56  A    between atoms: _130  and  _131
REMARK   57  A    between atoms: _130  and  _133
REMARK   58  A    between atoms: _133  and  _134
REMARK   59  A    between atoms: _134  and  _135
REMARK   60  A    between atoms: _135  and  _136
REMARK   61  A    between atoms: _136  and  _137
REMARK   62  A    between atoms: _141  and  _143
REMARK   63  A    between atoms: _143  and  _144
REMARK   64  A    between atoms: _143  and  _146
REMARK   65  A    between atoms: _149  and  _151
REMARK   66  A    between atoms: _151  and  _152
REMARK   67  A    between atoms: _151  and  _154
REMARK   68  A    between atoms: _154  and  _155
REMARK   69  A    between atoms: _158  and  _160
REMARK   70  A    between atoms: _160  and  _161
REMARK   71  A    between atoms: _160  and  _163
REMARK   72  A    between atoms: _163  and  _164
REMARK   73  A    between atoms: _164  and  _165
REMARK   74  A    between atoms: _168  and  _170
REMARK   75  A    between atoms: _170  and  _171
REMARK   76  A    between atoms: _170  and  _173
REMARK   77  A    between atoms: _176  and  _178
REMARK   78  A    between atoms: _178  and  _179
REMARK   79  A    between atoms: _178  and  _181
REMARK   80  A    between atoms: _181  and  _182
REMARK   81  A    between atoms: _185  and  _187
REMARK   82  A    between atoms: _187  and  _188
REMARK   83  A    between atoms: _187  and  _190
REMARK   84  A    between atoms: _190  and  _191
REMARK   85  A    between atoms: _191  and  _192
REMARK   86  A    between atoms: _194  and  _196
REMARK   87  A    between atoms: _196  and  _197
REMARK   88  A    between atoms: _196  and  _199
REMARK   89  A    between atoms: _199  and  _200
REMARK   90  A    between atoms: _200  and  _201
REMARK   91  A    between atoms: _201  and  _202
REMARK   92  A    between atoms: _202  and  _203
REMARK   93  A    between atoms: _207  and  _209
REMARK   94  A    between atoms: _209  and  _210
REMARK   95  A    between atoms: _209  and  _212
REMARK   96  A    between atoms: _212  and  _213
REMARK   97  A    between atoms: _216  and  _218
REMARK   98  A    between atoms: _218  and  _219
REMARK   99  A    between atoms: _218  and  _221
REMARK  100  A    between atoms: _221  and  _222
REMARK  101  A    between atoms: _227  and  _228
REMARK  102  A    between atoms: _230  and  _232
REMARK  103  A    between atoms: _232  and  _233
REMARK  104  A    between atoms: _232  and  _235
REMARK  105  A    between atoms: _235  and  _236
REMARK  106  A    between atoms: _236  and  _237
REMARK  107  A    between atoms: _240  and  _242
REMARK  108  A    between atoms: _242  and  _243
REMARK  109  A    between atoms: _242  and  _245
REMARK  110  A    between atoms: _245  and  _246
REMARK  111  A    between atoms: _252  and  _254
REMARK  112  A    between atoms: _254  and  _255
REMARK  113  A    between atoms: _254  and  _257
REMARK  114  A    between atoms: _257  and  _258
REMARK  115  A    between atoms: _263  and  _264
REMARK  116  A    between atoms: _266  and  _268
REMARK  117  A    between atoms: _268  and  _269
REMARK  118  A    between atoms: _268  and  _271
REMARK  119  A    between atoms: _271  and  _272
REMARK  120  A    between atoms: _275  and  _277
REMARK  121  A    between atoms: _277  and  _278
REMARK  122  A    between atoms: _277  and  _280
REMARK  123  A    between atoms: _283  and  _285
REMARK  124  A    between atoms: _285  and  _286
REMARK  125  A    between atoms: _288  and  _290
REMARK  126  A    between atoms: _290  and  _291
REMARK  127  A    between atoms: _290  and  _293
REMARK  128  A    between atoms: _293  and  _294
REMARK  129  A    between atoms: _294  and  _295
REMARK  130  A    between atoms: _298  and  _300
REMARK  131  A    between atoms: _300  and  _301
REMARK  132  A    between atoms: _300  and  _303
REMARK  133  A    between atoms: _306  and  _308
REMARK  134  A    between atoms: _308  and  _309
REMARK  135  A    between atoms: _308  and  _311
REMARK  136  A    between atoms: _311  and  _312
REMARK  137  A    between atoms: _317  and  _318
REMARK  138  A    between atoms: _320  and  _322
REMARK  139  A    between atoms: _322  and  _323
REMARK  140  A    between atoms: _322  and  _325
REMARK  141  A    between atoms: _325  and  _326
REMARK  142  A    between atoms: _329  and  _331
REMARK  143  A    between atoms: _331  and  _332
REMARK  144  A    between atoms: _334  and  _336
REMARK  145  A    between atoms: _336  and  _337
REMARK  146  A    between atoms: _339  and  _341
REMARK  147  A    between atoms: _341  and  _342
REMARK  148  A    between atoms: _341  and  _344
REMARK  149  A    between atoms: _344  and  _345
REMARK  150  A    between atoms: _345  and  _346
REMARK  151  A    between atoms: _349  and  _351
REMARK  152  A    between atoms: _351  and  _352
REMARK  153  A    between atoms: _351  and  _354
REMARK  154  A    between atoms: _354  and  _355
REMARK  155  A    between atoms: _358  and  _360
REMARK  156  A    between atoms: _360  and  _361
REMARK  157  A    between atoms: _360  and  _363
REMARK  158  A    between atoms: _363  and  _364
REMARK  159  A    between atoms: _367  and  _369
REMARK  160  A    between atoms: _369  and  _370
REMARK  161  A    between atoms: _369  and  _372
REMARK  162  A    between atoms: _372  and  _373
REMARK  163  A    between atoms: _373  and  _374
REMARK  164  A    between atoms: _377  and  _379
REMARK  165  A    between atoms: _379  and  _380
REMARK  166  A    between atoms: _379  and  _382
REMARK  167  A    between atoms: _382  and  _383
REMARK  168  A    between atoms: _388  and  _390
REMARK  169  A    between atoms: _390  and  _391
REMARK  170  A    between atoms: _390  and  _393
REMARK  171  A    between atoms: _393  and  _394
REMARK  172  A    between atoms: _397  and  _399
REMARK  173  A    between atoms: _399  and  _400
REMARK  174  A    between atoms: _399  and  _402
REMARK  175  A    between atoms: _402  and  _403
REMARK  176  A    between atoms: _406  and  _408
REMARK  177  A    between atoms: _408  and  _409
REMARK  178  A    between atoms: _408  and  _411
REMARK  179  A    between atoms: _411  and  _412
REMARK  180  A    between atoms: _415  and  _417
REMARK  181  A    between atoms: _417  and  _418
REMARK  182  A    between atoms: _417  and  _420
REMARK  183  A    between atoms: _420  and  _421
REMARK  184  A    between atoms: _421  and  _422
REMARK  185  A    between atoms: _425  and  _427
REMARK  186  A    between atoms: _427  and  _428
REMARK  187  A    between atoms: _427  and  _430
REMARK  188  A    between atoms: _430  and  _431
REMARK  189  A    between atoms: _431  and  _432
REMARK  190  A    between atoms: _432  and  _433
REMARK  191  A    between atoms: _442  and  _444
REMARK  192  A    between atoms: _444  and  _445
REMARK  193  A    between atoms: _444  and  _447
REMARK  194  A    between atoms: _447  and  _448
REMARK  195  A    between atoms: _451  and  _453
REMARK  196  A    between atoms: _453  and  _454
REMARK  197  A    between atoms: _453  and  _456
REMARK  198  A    between atoms: _456  and  _457
REMARK  199  A    between atoms: _460  and  _462
REMARK  200  A    between atoms: _462  and  _463
REMARK  201  A    between atoms: _462  and  _465
REMARK  202  A    between atoms: _465  and  _466
REMARK  203  A    between atoms: _469  and  _471
REMARK  204  A    between atoms: _471  and  _472
REMARK  205  A    between atoms: _471  and  _474
REMARK  206  A    between atoms: _474  and  _475
REMARK  207  A    between atoms: _481  and  _483
REMARK  208  A    between atoms: _483  and  _484
REMARK  209  A    between atoms: _486  and  _488
REMARK  210  A    between atoms: _488  and  _489
REMARK  211  A    between atoms: _488  and  _491
REMARK  212  A    between atoms: _491  and  _492
REMARK  213  A    between atoms: _495  and  _497
REMARK  214  A    between atoms: _497  and  _498
REMARK  215  A    between atoms: _497  and  _500
REMARK  216  A    between atoms: _500  and  _501
REMARK  217  A    between atoms: _503  and  _505
REMARK  218  A    between atoms: _505  and  _506
REMARK  219  A    between atoms: _505  and  _508
REMARK  220  A    between atoms: _508  and  _509
REMARK  221  A    between atoms: _515  and  _517
REMARK  222  A    between atoms: _517  and  _518
REMARK  223  A    between atoms: _517  and  _520
REMARK  224  A    between atoms: _520  and  _521
REMARK  225  A    between atoms: _521  and  _522
REMARK  226  A    between atoms: _522  and  _523
REMARK  227  A    between atoms: _523  and  _524
REMARK  228  A    between atoms: _528  and  _530
REMARK  229  A    between atoms: _530  and  _531
REMARK  230  A    between atoms: _530  and  _533
REMARK  231  A    between atoms: _533  and  _534
REMARK  232  A    between atoms: _534  and  _535
REMARK                            x       y       z     vdW  Elec       q    Type
REMARK                         _______ _______ _______ _____ _____    ______ ____
ROOT
ATOM      1  CA  VAL A   3      16.850  17.988  68.166  0.00  0.00    +0.149 C 
ENDROOT
BRANCH   1   2
ATOM      2  C   VAL A   3      18.085  17.502  68.932  0.00  0.00    +0.241 C 
ATOM      3  N   ILE A   4      17.871  16.602  69.874  0.00  0.00    -0.297 N 
ATOM      4  H   ILE A   4      16.900  16.266  70.033  0.00  0.00    +0.150 HD
ATOM      5  O   VAL A   3      19.197  17.928  68.662  0.00  0.00    -0.273 OA
BRANCH   3   6
ATOM      6  CA  ILE A   4      18.934  16.065  70.693  0.00  0.00    +0.149 C 
BRANCH   6   7
ATOM      7  C   ILE A   4      18.951  14.545  70.593  0.00  0.00    +0.241 C 
ATOM      8  O   ILE A   4      17.909  13.916  70.713  0.00  0.00    -0.273 OA
ATOM      9  N   LEU A   5      20.129  13.963  70.378  0.00  0.00    -0.298 N 
ATOM     10  H   LEU A   5      20.954  14.556  70.154  0.00  0.00    +0.150 HD
BRANCH   9  11
ATOM     11  CA  LEU A   5      20.292  12.520  70.449  0.00  0.00    +0.137 C 
BRANCH  11  12
ATOM     12  C   LEU A   5      20.238  12.107  71.924  0.00  0.00    +0.227 C 
ATOM     13  O   LEU A   5      21.042  12.588  72.738  0.00  0.00    -0.286 OA
ENDBRANCH  11  12
BRANCH  11  14
ATOM     14  CB  LEU A   5      21.604  12.059  69.788  0.00  0.00    +0.028 C 
BRANCH  14  15
ATOM     15  CG  LEU A   5      21.915  10.560  69.968  0.00  0.00    +0.002 C 
ATOM     16  CD2 LEU A   5      23.313  10.169  69.499  0.00  0.00    +0.000 C 
ATOM     17  CD1 LEU A   5      20.863   9.705  69.272  0.00  0.00    +0.000 C 
ENDBRANCH  14  15
ENDBRANCH  11  14
ENDBRANCH   9  11
ENDBRANCH   6   7
BRANCH   6  18
ATOM     18  CB  ILE A   4      18.720  16.432  72.170  0.00  0.00    +0.027 C 
ATOM     19  CG2 ILE A   4      19.947  16.060  72.992  0.00  0.00    +0.002 C 
BRANCH  18  20
ATOM     20  CG1 ILE A   4      18.410  17.917  72.314  0.00  0.00    +0.002 C 
ATOM     21  CD1 ILE A   4      19.573  18.803  71.945  0.00  0.00    +0.000 C 
ENDBRANCH  18  20
ENDBRANCH   6  18
ENDBRANCH   3   6
ENDBRANCH   1   2
BRANCH   1  24
ATOM     22  C   GLU A   2      15.958  20.191  68.661  0.00  0.00    +0.241 C 
ATOM     23  O   GLU A   2      14.942  19.734  69.186  0.00  0.00    -0.273 OA
ATOM     24  N   VAL A   3      16.883  19.429  68.089  0.00  0.00    -0.297 N 
ATOM     25  H   VAL A   3      17.658  19.886  67.568  0.00  0.00    +0.150 HD
BRANCH  22  26
ATOM     26  CA  GLU A   2      16.218  21.693  68.623  0.00  0.00    +0.149 C 
BRANCH  26  28
ATOM     27  C   GLY A   1      14.095  22.489  67.697  0.00  0.00    +0.240 C 
ATOM     28  N   GLU A   2      14.983  22.450  68.680  0.00  0.00    -0.297 N 
ATOM     29  H   GLU A   2      14.782  22.994  69.543  0.00  0.00    +0.150 HD
ATOM     30  O   GLY A   1      14.268  21.972  66.580  0.00  0.00    -0.274 OA
BRANCH  27  31
ATOM     31  CA  GLY A   1      12.826  23.229  68.043  0.00  0.00    +0.169 C 
BRANCH  31  32
ATOM     32  N   GLY A   1      11.923  23.442  66.928  0.00  0.00    -0.236 NA
ATOM     33  H   GLY A   1      12.221  23.178  65.967  0.00  0.00    +0.142 HD
ENDBRANCH  31  32
ENDBRANCH  27  31
ENDBRANCH  26  28
BRANCH  26  34
ATOM     34  CB  GLU A   2      17.109  22.073  69.824  0.00  0.00    +0.041 C 
BRANCH  34  35
ATOM     35  CG  GLU A   2      17.588  23.529  69.831  0.00  0.00    +0.116 C 
BRANCH  35  36
ATOM     36  CD  GLU A   2      18.901  23.760  69.081  0.00  0.00    +0.365 C 
ATOM     37  OE2 GLU A   2      19.657  22.787  68.837  0.00  0.00    -0.246 OA
ATOM     38  OE1 GLU A   2      19.187  24.933  68.751  0.00  0.00    -0.246 OA
ENDBRANCH  35  36
ENDBRANCH  34  35
ENDBRANCH  26  34
ENDBRANCH  22  26
ENDBRANCH   1  24
BRANCH   1  39
ATOM     39  CB  VAL A   3      16.832  17.356  66.766  0.00  0.00    +0.027 C 
ATOM     40  CG2 VAL A   3      16.988  15.840  66.868  0.00  0.00    +0.002 C 
ATOM     41  CG1 VAL A   3      15.549  17.734  66.025  0.00  0.00    +0.002 C 
ENDBRANCH   1  39
TORSDOF 18
REMARK  Name = ../refined-set-2016/3v5t/3v5t_pocket.pdb
REMARK  232 active torsions:
REMARK  status: ('A' for Active; 'I' for Inactive)
REMARK    1  A    between atoms: _1  and  _3
REMARK    2  A    between atoms: _3  and  _4
REMARK    3  A    between atoms: _3  and  _6
REMARK    4  A    between atoms: _6  and  _7
REMARK    5  A    between atoms: _7  and  _8
REMARK    6  A    between atoms: _8  and  _9
REMARK    7  A    between atoms: _18  and  _20
REMARK    8  A    between atoms: _20  and  _21
REMARK    9  A    between atoms: _20  and  _23
REMARK   10  A    between atoms: _26  and  _28
REMARK   11  A    between atoms: _28  and  _29
REMARK   12  A    between atoms: _28  and  _31
REMARK   13  A    between atoms: _31  and  _32
REMARK   14  A    between atoms: _35  and  _37
REMARK   15  A    between atoms: _37  and  _38
REMARK   16  A    between atoms: _40  and  _42
REMARK   17  A    between atoms: _42  and  _43
REMARK   18  A    between atoms: _42  and  _45
REMARK   19  A    between atoms: _45  and  _46
REMARK   20  A    between atoms: _46  and  _47
REMARK   21  A    between atoms: _47  and  _48
REMARK   22  A    between atoms: _48  and  _49
REMARK   23  A    between atoms: _53  and  _55
REMARK   24  A    between atoms: _55  and  _56
REMARK   25  A    between atoms: _58  and  _60
REMARK   26  A    between atoms: _60  and  _61
REMARK   27  A    between atoms: _60  and  _63
REMARK   28  A    between atoms: _63  and  _64
REMARK   29  A    between atoms: _66  and  _68
REMARK   30  A    between atoms: _68  and  _69
REMARK   31  A    between atoms: _71  and  _73
REMARK   32  A    between atoms: _73  and  _74
REMARK   33  A    between atoms: _73  and  _76
REMARK   34  A    between atoms: _76  and  _77
REMARK   35  A    between atoms: _77  and  _78
REMARK   36  A    between atoms: _81  and  _83
REMARK   37  A    between atoms: _83  and  _84
REMARK   38  A    between atoms: _83  and  _86
REMARK   39  A    between atoms: _89  and  _91
REMARK   40  A    between atoms: _91  and  _92
REMARK   41  A    between atoms: _91  and  _94
REMARK   42  A    between atoms: _94  and  _95
REMARK   43  A    between atoms: _98  and  _100
REMARK   44  A    between atoms: _100  and  _101
REMARK   45  A    between atoms: _100  and  _103
REMARK   46  A    between atoms: _103  and  _104
REMARK   47  A    between atoms: _107  and  _109
REMARK   48  A    between atoms: _109  and  _110
REMARK   49  A    between atoms: _109  and  _112
REMARK   50  A    between atoms: _114  and  _116
REMARK   51  A    between atoms: _116  and  _117
REMARK   52  A    between atoms: _120  and  _122
REMARK   53  A    between atoms: _122  and  _123
REMARK   54  A    between atoms: _122  and  _125
REMARK   55  A    between atoms: _128  and  _130
REMARK   56  A    between atoms: _130  and  _131
REMARK   57  A    between atoms: _130  and  _133
REMARK   58  A    between atoms: _133  and  _134
REMARK   59  A    between atoms: _134  and  _135
REMARK   60  A    between atoms: _135  and  _136
REMARK   61  A    between atoms: _136  and  _137
REMARK   62  A    between atoms: _141  and  _143
REMARK   63  A    between atoms: _143  and  _144
REMARK   64  A    between atoms: _143  and  _146
REMARK   65  A    between atoms: _149  and  _151
REMARK   66  A    between atoms: _151  and  _152
REMARK   67  A    between atoms: _151  and  _154
REMARK   68  A    between atoms: _154  and  _155
REMARK   69  A    between atoms: _158  and  _160
REMARK   70  A    between atoms: _160  and  _161
REMARK   71  A    between atoms: _160  and  _163
REMARK   72  A    between atoms: _163  and  _164
REMARK   73  A    between atoms: _164  and  _165
REMARK   74  A    between atoms: _168  and  _170
REMARK   75  A    between atoms: _170  and  _171
REMARK   76  A    between atoms: _170  and  _173
REMARK   77  A    between atoms: _176  and  _178
REMARK   78  A    between atoms: _178  and  _179
REMARK   79  A    between atoms: _178  and  _181
REMARK   80  A    between atoms: _181  and  _182
REMARK   81  A    between atoms: _185  and  _187
REMARK   82  A    between atoms: _187  and  _188
REMARK   83  A    between atoms: _187  and  _190
REMARK   84  A    between atoms: _190  and  _191
REMARK   85  A    between atoms: _191  and  _192
REMARK   86  A    between atoms: _194  and  _196
REMARK   87  A    between atoms: _196  and  _197
REMARK   88  A    between atoms: _196  and  _199
REMARK   89  A    between atoms: _199  and  _200
REMARK   90  A    between atoms: _200  and  _201
REMARK   91  A    between atoms: _201  and  _202
REMARK   92  A    between atoms: _202  and  _203
REMARK   93  A    between atoms: _207  and  _209
REMARK   94  A    between atoms: _209  and  _210
REMARK   95  A    between atoms: _209  and  _212
REMARK   96  A    between atoms: _212  and  _213
REMARK   97  A    between atoms: _216  and  _218
REMARK   98  A    between atoms: _218  and  _219
REMARK   99  A    between atoms: _218  and  _221
REMARK  100  A    between atoms: _221  and  _222
REMARK  101  A    between atoms: _227  and  _228
REMARK  102  A    between atoms: _230  and  _232
REMARK  103  A    between atoms: _232  and  _233
REMARK  104  A    between atoms: _232  and  _235
REMARK  105  A    between atoms: _235  and  _236
REMARK  106  A    between atoms: _236  and  _237
REMARK  107  A    between atoms: _240  and  _242
REMARK  108  A    between atoms: _242  and  _243
REMARK  109  A    between atoms: _242  and  _245
REMARK  110  A    between atoms: _245  and  _246
REMARK  111  A    between atoms: _252  and  _254
REMARK  112  A    between atoms: _254  and  _255
REMARK  113  A    between atoms: _254  and  _257
REMARK  114  A    between atoms: _257  and  _258
REMARK  115  A    between atoms: _263  and  _264
REMARK  116  A    between atoms: _266  and  _268
REMARK  117  A    between atoms: _268  and  _269
REMARK  118  A    between atoms: _268  and  _271
REMARK  119  A    between atoms: _271  and  _272
REMARK  120  A    between atoms: _275  and  _277
REMARK  121  A    between atoms: _277  and  _278
REMARK  122  A    between atoms: _277  and  _280
REMARK  123  A    between atoms: _283  and  _285
REMARK  124  A    between atoms: _285  and  _286
REMARK  125  A    between atoms: _288  and  _290
REMARK  126  A    between atoms: _290  and  _291
REMARK  127  A    between atoms: _290  and  _293
REMARK  128  A    between atoms: _293  and  _294
REMARK  129  A    between atoms: _294  and  _295
REMARK  130  A    between atoms: _298  and  _300
REMARK  131  A    between atoms: _300  and  _301
REMARK  132  A    between atoms: _300  and  _303
REMARK  133  A    between atoms: _306  and  _308
REMARK  134  A    between atoms: _308  and  _309
REMARK  135  A    between atoms: _308  and  _311
REMARK  136  A    between atoms: _311  and  _312
REMARK  137  A    between atoms: _317  and  _318
REMARK  138  A    between atoms: _320  and  _322
REMARK  139  A    between atoms: _322  and  _323
REMARK  140  A    between atoms: _322  and  _325
REMARK  141  A    between atoms: _325  and  _326
REMARK  142  A    between atoms: _329  and  _331
REMARK  143  A    between atoms: _331  and  _332
REMARK  144  A    between atoms: _334  and  _336
REMARK  145  A    between atoms: _336  and  _337
REMARK  146  A    between atoms: _339  and  _341
REMARK  147  A    between atoms: _341  and  _342
REMARK  148  A    between atoms: _341  and  _344
REMARK  149  A    between atoms: _344  and  _345
REMARK  150  A    between atoms: _345  and  _346
REMARK  151  A    between atoms: _349  and  _351
REMARK  152  A    between atoms: _351  and  _352
REMARK  153  A    between atoms: _351  and  _354
REMARK  154  A    between atoms: _354  and  _355
REMARK  155  A    between atoms: _358  and  _360
REMARK  156  A    between atoms: _360  and  _361
REMARK  157  A    between atoms: _360  and  _363
REMARK  158  A    between atoms: _363  and  _364
REMARK  159  A    between atoms: _367  and  _369
REMARK  160  A    between atoms: _369  and  _370
REMARK  161  A    between atoms: _369  and  _372
REMARK  162  A    between atoms: _372  and  _373
REMARK  163  A    between atoms: _373  and  _374
REMARK  164  A    between atoms: _377  and  _379
REMARK  165  A    between atoms: _379  and  _380
REMARK  166  A    between atoms: _379  and  _382
REMARK  167  A    between atoms: _382  and  _383
REMARK  168  A    between atoms: _388  and  _390
REMARK  169  A    between atoms: _390  and  _391
REMARK  170  A    between atoms: _390  and  _393
REMARK  171  A    between atoms: _393  and  _394
REMARK  172  A    between atoms: _397  and  _399
REMARK  173  A    between atoms: _399  and  _400
REMARK  174  A    between atoms: _399  and  _402
REMARK  175  A    between atoms: _402  and  _403
REMARK  176  A    between atoms: _406  and  _408
REMARK  177  A    between atoms: _408  and  _409
REMARK  178  A    between atoms: _408  and  _411
REMARK  179  A    between atoms: _411  and  _412
REMARK  180  A    between atoms: _415  and  _417
REMARK  181  A    between atoms: _417  and  _418
REMARK  182  A    between atoms: _417  and  _420
REMARK  183  A    between atoms: _420  and  _421
REMARK  184  A    between atoms: _421  and  _422
REMARK  185  A    between atoms: _425  and  _427
REMARK  186  A    between atoms: _427  and  _428
REMARK  187  A    between atoms: _427  and  _430
REMARK  188  A    between atoms: _430  and  _431
REMARK  189  A    between atoms: _431  and  _432
REMARK  190  A    between atoms: _432  and  _433
REMARK  191  A    between atoms: _442  and  _444
REMARK  192  A    between atoms: _444  and  _445
REMARK  193  A    between atoms: _444  and  _447
REMARK  194  A    between atoms: _447  and  _448
REMARK  195  A    between atoms: _451  and  _453
REMARK  196  A    between atoms: _453  and  _454
REMARK  197  A    between atoms: _453  and  _456
REMARK  198  A    between atoms: _456  and  _457
REMARK  199  A    between atoms: _460  and  _462
REMARK  200  A    between atoms: _462  and  _463
REMARK  201  A    between atoms: _462  and  _465
REMARK  202  A    between atoms: _465  and  _466
REMARK  203  A    between atoms: _469  and  _471
REMARK  204  A    between atoms: _471  and  _472
REMARK  205  A    between atoms: _471  and  _474
REMARK  206  A    between atoms: _474  and  _475
REMARK  207  A    between atoms: _481  and  _483
REMARK  208  A    between atoms: _483  and  _484
REMARK  209  A    between atoms: _486  and  _488
REMARK  210  A    between atoms: _488  and  _489
REMARK  211  A    between atoms: _488  and  _491
REMARK  212  A    between atoms: _491  and  _492
REMARK  213  A    between atoms: _495  and  _497
REMARK  214  A    between atoms: _497  and  _498
REMARK  215  A    between atoms: _497  and  _500
REMARK  216  A    between atoms: _500  and  _501
REMARK  217  A    between atoms: _503  and  _505
REMARK  218  A    between atoms: _505  and  _506
REMARK  219  A    between atoms: _505  and  _508
REMARK  220  A    between atoms: _508  and  _509
REMARK  221  A    between atoms: _515  and  _517
REMARK  222  A    between atoms: _517  and  _518
REMARK  223  A    between atoms: _517  and  _520
REMARK  224  A    between atoms: _520  and  _521
REMARK  225  A    between atoms: _521  and  _522
REMARK  226  A    between atoms: _522  and  _523
REMARK  227  A    between atoms: _523  and  _524
REMARK  228  A    between atoms: _528  and  _530
REMARK  229  A    between atoms: _530  and  _531
REMARK  230  A    between atoms: _530  and  _533
REMARK  231  A    between atoms: _533  and  _534
REMARK  232  A    between atoms: _534  and  _535
REMARK                            x       y       z     vdW  Elec       q    Type
REMARK                         _______ _______ _______ _____ _____    ______ ____
ROOT
ATOM      1  CA  LYS A   4      12.700  17.116  69.192  0.00  0.00    +0.149 C 
ENDROOT
BRANCH   1   4
ATOM      2  C   VAL A   3      14.118  15.337  70.051  0.00  0.00    +0.241 C 
ATOM      3  O   VAL A   3      15.120  16.062  70.054  0.00  0.00    -0.273 OA
ATOM      4  N   LYS A   4      12.931  15.735  69.593  0.00  0.00    -0.297 N 
ATOM      5  H   LYS A   4      12.155  15.046  69.521  0.00  0.00    +0.150 HD
BRANCH   2   6
ATOM      6  CA  VAL A   3      14.212  13.921  70.580  0.00  0.00    +0.149 C 
BRANCH   6   8
ATOM      7  C   ALA A   2      15.010  12.356  68.911  0.00  0.00    +0.241 C 
ATOM      8  N   VAL A   3      15.277  13.210  69.892  0.00  0.00    -0.297 N 
ATOM      9  H   VAL A   3      16.265  13.373  70.173  0.00  0.00    +0.150 HD
ATOM     10  O   ALA A   2      13.862  12.177  68.480  0.00  0.00    -0.273 OA
BRANCH   7  11
ATOM     11  CA  ALA A   2      16.194  11.560  68.359  0.00  0.00    +0.149 C 
ATOM     12  CB  ALA A   2      16.252  11.622  66.830  0.00  0.00    +0.031 C 
BRANCH  11  15
ATOM     13  C   CYS A   1      16.777   9.642  69.764  0.00  0.00    +0.239 C 
ATOM     14  O   CYS A   1      17.720  10.232  70.281  0.00  0.00    -0.274 OA
ATOM     15  N   ALA A   2      16.017  10.179  68.814  0.00  0.00    -0.297 N 
ATOM     16  H   ALA A   2      15.272   9.599  68.379  0.00  0.00    +0.150 HD
BRANCH  13  17
ATOM     17  CA  CYS A   1      16.420   8.225  70.196  0.00  0.00    +0.156 C 
BRANCH  17  18
ATOM     18  N   CYS A   1      17.574   7.543  70.782  0.00  0.00    -0.237 NA
ATOM     19  H   CYS A   1      18.206   8.080  71.409  0.00  0.00    +0.142 HD
ENDBRANCH  17  18
BRANCH  17  20
ATOM     20  CB  CYS A   1      15.264   8.267  71.200  0.00  0.00    +0.095 C 
ATOM     21  SG  CYS A   1      14.681   6.637  71.727  0.00  0.00    -0.080 S 
ENDBRANCH  17  20
ENDBRANCH  13  17
ENDBRANCH  11  15
ENDBRANCH   7  11
ENDBRANCH   6   8
BRANCH   6  22
ATOM     22  CB  VAL A   3      14.479  13.967  72.094  0.00  0.00    +0.027 C 
ATOM     23  CG2 VAL A   3      13.326  14.616  72.834  0.00  0.00    +0.002 C 
ATOM     24  CG1 VAL A   3      14.692  12.560  72.620  0.00  0.00    +0.002 C 
ENDBRANCH   6  22
ENDBRANCH   2   6
ENDBRANCH   1   4
BRANCH   1  25
ATOM     25  C   LYS A   4      12.050  17.816  70.359  0.00  0.00    +0.241 C 
ATOM     26  N   VAL A   5      12.736  18.843  70.875  0.00  0.00    -0.297 N 
ATOM     27  H   VAL A   5      13.614  19.140  70.403  0.00  0.00    +0.150 HD
ATOM     28  O   LYS A   4      10.963  17.412  70.799  0.00  0.00    -0.273 OA
BRANCH  26  29
ATOM     29  CA  VAL A   5      12.305  19.570  72.078  0.00  0.00    +0.149 C 
BRANCH  29  30
ATOM     30  C   VAL A   5      11.744  20.926  71.663  0.00  0.00    +0.241 C 
ATOM     31  N   ILE A   6      10.429  21.089  71.789  0.00  0.00    -0.298 N 
ATOM     32  H   ILE A   6       9.862  20.317  72.194  0.00  0.00    +0.150 HD
ATOM     33  O   VAL A   5      12.490  21.802  71.230  0.00  0.00    -0.273 OA
BRANCH  31  34
ATOM     34  CA  ILE A   6       9.762  22.313  71.377  0.00  0.00    +0.137 C 
BRANCH  34  35
ATOM     35  CB  ILE A   6       8.398  22.025  70.721  0.00  0.00    +0.026 C 
ATOM     36  CG2 ILE A   6       7.678  23.340  70.441  0.00  0.00    +0.002 C 
BRANCH  35  37
ATOM     37  CG1 ILE A   6       8.582  21.154  69.466  0.00  0.00    +0.002 C 
ATOM     38  CD1 ILE A   6       7.316  20.973  68.629  0.00  0.00    +0.000 C 
ENDBRANCH  35  37
ENDBRANCH  34  35
BRANCH  34  39
ATOM     39  C   ILE A   6       9.493  23.221  72.561  0.00  0.00    +0.227 C 
ATOM     40  O   ILE A   6       8.812  22.818  73.507  0.00  0.00    -0.286 OA
ENDBRANCH  34  39
ENDBRANCH  31  34
ENDBRANCH  29  30
BRANCH  29  41
ATOM     41  CB  VAL A   5      13.460  19.795  73.096  0.00  0.00    +0.027 C 
ATOM     42  CG2 VAL A   5      12.890  20.251  74.430  0.00  0.00    +0.002 C 
ATOM     43  CG1 VAL A   5      14.290  18.529  73.274  0.00  0.00    +0.002 C 
ENDBRANCH  29  41
ENDBRANCH  26  29
ENDBRANCH   1  25
BRANCH   1  44
ATOM     44  CB  LYS A   4      11.818  17.227  67.935  0.00  0.00    +0.029 C 
BRANCH  44  45
ATOM     45  CG  LYS A   4      11.600  18.661  67.498  0.00  0.00    +0.000 C 
BRANCH  45  46
ATOM     46  CD  LYS A   4      10.991  18.794  66.106  0.00  0.00    -0.024 C 
BRANCH  46  47
ATOM     47  CE  LYS A   4      12.019  19.079  65.012  0.00  0.00    -0.086 C 
BRANCH  47  48
ATOM     48  NZ  LYS A   4      11.387  19.255  63.665  0.00  0.00    +0.380 N 
ATOM     49  HZ1 LYS A   4      10.722  20.054  63.697  0.00  0.00    -0.089 HD
ATOM     50  HZ2 LYS A   4      10.876  18.387  63.407  0.00  0.00    -0.089 HD
ATOM     51  HZ3 LYS A   4      12.126  19.446  62.959  0.00  0.00    -0.089 HD
ENDBRANCH  47  48
ENDBRANCH  46  47
ENDBRANCH  45  46
ENDBRANCH  44  45
ENDBRANCH   1  44
TORSDOF 22
REMARK  Name = ../refined-set-2016/3v5t/3v5t_pocket.pdb
REMARK  232 active torsions:
REMARK  status: ('A' for Active; 'I' for Inactive)
REMARK    1  A    between atoms: _1  and  _3
REMARK    2  A    between atoms: _3  and  _4
REMARK    3  A    between atoms: _3  and  _6
REMARK    4  A    between atoms: _6  and  _7
REMARK    5  A    between atoms: _7  and  _8
REMARK    6  A    between atoms: _8  and  _9
REMARK    7  A    between atoms: _18  and  _20
REMARK    8  A    between atoms: _20  and  _21
REMARK    9  A    between atoms: _20  and  _23
REMARK   10  A    between atoms: _26  and  _28
REMARK   11  A    between atoms: _28  and  _29
REMARK   12  A    between atoms: _28  and  _31
REMARK   13  A    between atoms: _31  and  _32
REMARK   14  A    between atoms: _35  and  _37
REMARK   15  A    between atoms: _37  and  _38
REMARK   16  A    between atoms: _40  and  _42
REMARK   17  A    between atoms: _42  and  _43
REMARK   18  A    between atoms: _42  and  _45
REMARK   19  A    between atoms: _45  and  _46
REMARK   20  A    between atoms: _46  and  _47
REMARK   21  A    between atoms: _47  and  _48
REMARK   22  A    between atoms: _48  and  _49
REMARK   23  A    between atoms: _53  and  _55
REMARK   24  A    between atoms: _55  and  _56
REMARK   25  A    between atoms: _58  and  _60
REMARK   26  A    between atoms: _60  and  _61
REMARK   27  A    between atoms: _60  and  _63
REMARK   28  A    between atoms: _63  and  _64
REMARK   29  A    between atoms: _66  and  _68
REMARK   30  A    between atoms: _68  and  _69
REMARK   31  A    between atoms: _71  and  _73
REMARK   32  A    between atoms: _73  and  _74
REMARK   33  A    between atoms: _73  and  _76
REMARK   34  A    between atoms: _76  and  _77
REMARK   35  A    between atoms: _77  and  _78
REMARK   36  A    between atoms: _81  and  _83
REMARK   37  A    between atoms: _83  and  _84
REMARK   38  A    between atoms: _83  and  _86
REMARK   39  A    between atoms: _89  and  _91
REMARK   40  A    between atoms: _91  and  _92
REMARK   41  A    between atoms: _91  and  _94
REMARK   42  A    between atoms: _94  and  _95
REMARK   43  A    between atoms: _98  and  _100
REMARK   44  A    between atoms: _100  and  _101
REMARK   45  A    between atoms: _100  and  _103
REMARK   46  A    between atoms: _103  and  _104
REMARK   47  A    between atoms: _107  and  _109
REMARK   48  A    between atoms: _109  and  _110
REMARK   49  A    between atoms: _109  and  _112
REMARK   50  A    between atoms: _114  and  _116
REMARK   51  A    between atoms: _116  and  _117
REMARK   52  A    between atoms: _120  and  _122
REMARK   53  A    between atoms: _122  and  _123
REMARK   54  A    between atoms: _122  and  _125
REMARK   55  A    between atoms: _128  and  _130
REMARK   56  A    between atoms: _130  and  _131
REMARK   57  A    between atoms: _130  and  _133
REMARK   58  A    between atoms: _133  and  _134
REMARK   59  A    between atoms: _134  and  _135
REMARK   60  A    between atoms: _135  and  _136
REMARK   61  A    between atoms: _136  and  _137
REMARK   62  A    between atoms: _141  and  _143
REMARK   63  A    between atoms: _143  and  _144
REMARK   64  A    between atoms: _143  and  _146
REMARK   65  A    between atoms: _149  and  _151
REMARK   66  A    between atoms: _151  and  _152
REMARK   67  A    between atoms: _151  and  _154
REMARK   68  A    between atoms: _154  and  _155
REMARK   69  A    between atoms: _158  and  _160
REMARK   70  A    between atoms: _160  and  _161
REMARK   71  A    between atoms: _160  and  _163
REMARK   72  A    between atoms: _163  and  _164
REMARK   73  A    between atoms: _164  and  _165
REMARK   74  A    between atoms: _168  and  _170
REMARK   75  A    between atoms: _170  and  _171
REMARK   76  A    between atoms: _170  and  _173
REMARK   77  A    between atoms: _176  and  _178
REMARK   78  A    between atoms: _178  and  _179
REMARK   79  A    between atoms: _178  and  _181
REMARK   80  A    between atoms: _181  and  _182
REMARK   81  A    between atoms: _185  and  _187
REMARK   82  A    between atoms: _187  and  _188
REMARK   83  A    between atoms: _187  and  _190
REMARK   84  A    between atoms: _190  and  _191
REMARK   85  A    between atoms: _191  and  _192
REMARK   86  A    between atoms: _194  and  _196
REMARK   87  A    between atoms: _196  and  _197
REMARK   88  A    between atoms: _196  and  _199
REMARK   89  A    between atoms: _199  and  _200
REMARK   90  A    between atoms: _200  and  _201
REMARK   91  A    between atoms: _201  and  _202
REMARK   92  A    between atoms: _202  and  _203
REMARK   93  A    between atoms: _207  and  _209
REMARK   94  A    between atoms: _209  and  _210
REMARK   95  A    between atoms: _209  and  _212
REMARK   96  A    between atoms: _212  and  _213
REMARK   97  A    between atoms: _216  and  _218
REMARK   98  A    between atoms: _218  and  _219
REMARK   99  A    between atoms: _218  and  _221
REMARK  100  A    between atoms: _221  and  _222
REMARK  101  A    between atoms: _227  and  _228
REMARK  102  A    between atoms: _230  and  _232
REMARK  103  A    between atoms: _232  and  _233
REMARK  104  A    between atoms: _232  and  _235
REMARK  105  A    between atoms: _235  and  _236
REMARK  106  A    between atoms: _236  and  _237
REMARK  107  A    between atoms: _240  and  _242
REMARK  108  A    between atoms: _242  and  _243
REMARK  109  A    between atoms: _242  and  _245
REMARK  110  A    between atoms: _245  and  _246
REMARK  111  A    between atoms: _252  and  _254
REMARK  112  A    between atoms: _254  and  _255
REMARK  113  A    between atoms: _254  and  _257
REMARK  114  A    between atoms: _257  and  _258
REMARK  115  A    between atoms: _263  and  _264
REMARK  116  A    between atoms: _266  and  _268
REMARK  117  A    between atoms: _268  and  _269
REMARK  118  A    between atoms: _268  and  _271
REMARK  119  A    between atoms: _271  and  _272
REMARK  120  A    between atoms: _275  and  _277
REMARK  121  A    between atoms: _277  and  _278
REMARK  122  A    between atoms: _277  and  _280
REMARK  123  A    between atoms: _283  and  _285
REMARK  124  A    between atoms: _285  and  _286
REMARK  125  A    between atoms: _288  and  _290
REMARK  126  A    between atoms: _290  and  _291
REMARK  127  A    between atoms: _290  and  _293
REMARK  128  A    between atoms: _293  and  _294
REMARK  129  A    between atoms: _294  and  _295
REMARK  130  A    between atoms: _298  and  _300
REMARK  131  A    between atoms: _300  and  _301
REMARK  132  A    between atoms: _300  and  _303
REMARK  133  A    between atoms: _306  and  _308
REMARK  134  A    between atoms: _308  and  _309
REMARK  135  A    between atoms: _308  and  _311
REMARK  136  A    between atoms: _311  and  _312
REMARK  137  A    between atoms: _317  and  _318
REMARK  138  A    between atoms: _320  and  _322
REMARK  139  A    between atoms: _322  and  _323
REMARK  140  A    between atoms: _322  and  _325
REMARK  141  A    between atoms: _325  and  _326
REMARK  142  A    between atoms: _329  and  _331
REMARK  143  A    between atoms: _331  and  _332
REMARK  144  A    between atoms: _334  and  _336
REMARK  145  A    between atoms: _336  and  _337
REMARK  146  A    between atoms: _339  and  _341
REMARK  147  A    between atoms: _341  and  _342
REMARK  148  A    between atoms: _341  and  _344
REMARK  149  A    between atoms: _344  and  _345
REMARK  150  A    between atoms: _345  and  _346
REMARK  151  A    between atoms: _349  and  _351
REMARK  152  A    between atoms: _351  and  _352
REMARK  153  A    between atoms: _351  and  _354
REMARK  154  A    between atoms: _354  and  _355
REMARK  155  A    between atoms: _358  and  _360
REMARK  156  A    between atoms: _360  and  _361
REMARK  157  A    between atoms: _360  and  _363
REMARK  158  A    between atoms: _363  and  _364
REMARK  159  A    between atoms: _367  and  _369
REMARK  160  A    between atoms: _369  and  _370
REMARK  161  A    between atoms: _369  and  _372
REMARK  162  A    between atoms: _372  and  _373
REMARK  163  A    between atoms: _373  and  _374
REMARK  164  A    between atoms: _377  and  _379
REMARK  165  A    between atoms: _379  and  _380
REMARK  166  A    between atoms: _379  and  _382
REMARK  167  A    between atoms: _382  and  _383
REMARK  168  A    between atoms: _388  and  _390
REMARK  169  A    between atoms: _390  and  _391
REMARK  170  A    between atoms: _390  and  _393
REMARK  171  A    between atoms: _393  and  _394
REMARK  172  A    between atoms: _397  and  _399
REMARK  173  A    between atoms: _399  and  _400
REMARK  174  A    between atoms: _399  and  _402
REMARK  175  A    between atoms: _402  and  _403
REMARK  176  A    between atoms: _406  and  _408
REMARK  177  A    between atoms: _408  and  _409
REMARK  178  A    between atoms: _408  and  _411
REMARK  179  A    between atoms: _411  and  _412
REMARK  180  A    between atoms: _415  and  _417
REMARK  181  A    between atoms: _417  and  _418
REMARK  182  A    between atoms: _417  and  _420
REMARK  183  A    between atoms: _420  and  _421
REMARK  184  A    between atoms: _421  and  _422
REMARK  185  A    between atoms: _425  and  _427
REMARK  186  A    between atoms: _427  and  _428
REMARK  187  A    between atoms: _427  and  _430
REMARK  188  A    between atoms: _430  and  _431
REMARK  189  A    between atoms: _431  and  _432
REMARK  190  A    between atoms: _432  and  _433
REMARK  191  A    between atoms: _442  and  _444
REMARK  192  A    between atoms: _444  and  _445
REMARK  193  A    between atoms: _444  and  _447
REMARK  194  A    between atoms: _447  and  _448
REMARK  195  A    between atoms: _451  and  _453
REMARK  196  A    between atoms: _453  and  _454
REMARK  197  A    between atoms: _453  and  _456
REMARK  198  A    between atoms: _456  and  _457
REMARK  199  A    between atoms: _460  and  _462
REMARK  200  A    between atoms: _462  and  _463
REMARK  201  A    between atoms: _462  and  _465
REMARK  202  A    between atoms: _465  and  _466
REMARK  203  A    between atoms: _469  and  _471
REMARK  204  A    between atoms: _471  and  _472
REMARK  205  A    between atoms: _471  and  _474
REMARK  206  A    between atoms: _474  and  _475
REMARK  207  A    between atoms: _481  and  _483
REMARK  208  A    between atoms: _483  and  _484
REMARK  209  A    between atoms: _486  and  _488
REMARK  210  A    between atoms: _488  and  _489
REMARK  211  A    between atoms: _488  and  _491
REMARK  212  A    between atoms: _491  and  _492
REMARK  213  A    between atoms: _495  and  _497
REMARK  214  A    between atoms: _497  and  _498
REMARK  215  A    between atoms: _497  and  _500
REMARK  216  A    between atoms: _500  and  _501
REMARK  217  A    between atoms: _503  and  _505
REMARK  218  A    between atoms: _505  and  _506
REMARK  219  A    between atoms: _505  and  _508
REMARK  220  A    between atoms: _508  and  _509
REMARK  221  A    between atoms: _515  and  _517
REMARK  222  A    between atoms: _517  and  _518
REMARK  223  A    between atoms: _517  and  _520
REMARK  224  A    between atoms: _520  and  _521
REMARK  225  A    between atoms: _521  and  _522
REMARK  226  A    between atoms: _522  and  _523
REMARK  227  A    between atoms: _523  and  _524
REMARK  228  A    between atoms: _528  and  _530
REMARK  229  A    between atoms: _530  and  _531
REMARK  230  A    between atoms: _530  and  _533
REMARK  231  A    between atoms: _533  and  _534
REMARK  232  A    between atoms: _534  and  _535
REMARK                            x       y       z     vdW  Elec       q    Type
REMARK                         _______ _______ _______ _____ _____    ______ ____
ROOT
ATOM      1  C   GLU A   1      -1.503  12.587  67.369  0.00  0.00    +0.238 C 
ATOM      2  N   VAL A   2      -0.890  12.868  68.512  0.00  0.00    -0.298 N 
ATOM      3  H   VAL A   2      -1.247  13.649  69.098  0.00  0.00    +0.150 HD
ATOM      4  O   GLU A   1      -1.098  11.720  66.584  0.00  0.00    -0.274 OA
ENDROOT
BRANCH   1   5
ATOM      5  CA  GLU A   1      -2.764  13.392  67.071  0.00  0.00    +0.145 C 
BRANCH   5   6
ATOM      6  N   GLU A   1      -3.634  13.504  68.252  0.00  0.00    -0.238 NA
ATOM      7  H   GLU A   1      -3.772  14.439  68.685  0.00  0.00    +0.142 HD
ENDBRANCH   5   6
BRANCH   5   8
ATOM      8  CB  GLU A   1      -2.381  14.772  66.545  0.00  0.00    +0.038 C 
BRANCH   8   9
ATOM      9  CG  GLU A   1      -1.898  14.774  65.097  0.00  0.00    +0.116 C 
BRANCH   9  10
ATOM     10  CD  GLU A   1      -3.018  14.959  64.082  0.00  0.00    +0.365 C 
ATOM     11  OE2 GLU A   1      -4.072  14.298  64.216  0.00  0.00    -0.246 OA
ATOM     12  OE1 GLU A   1      -2.837  15.758  63.137  0.00  0.00    -0.246 OA
ENDBRANCH   9  10
ENDBRANCH   8   9
ENDBRANCH   5   8
ENDBRANCH   1   5
BRANCH   2  13
ATOM     13  CA  VAL A   2       0.264  12.117  68.968  0.00  0.00    +0.137 C 
BRANCH  13  14
ATOM     14  CB  VAL A   2       0.796  12.696  70.312  0.00  0.00    +0.026 C 
ATOM     15  CG2 VAL A   2       1.555  11.648  71.125  0.00  0.00    +0.002 C 
ATOM     16  CG1 VAL A   2       1.657  13.911  70.023  0.00  0.00    +0.002 C 
ENDBRANCH  13  14
BRANCH  13  17
ATOM     17  C   VAL A   2      -0.042  10.627  69.113  0.00  0.00    +0.227 C 
ATOM     18  O   VAL A   2       0.762   9.786  68.717  0.00  0.00    -0.286 OA
ENDBRANCH  13  17
ENDBRANCH   2  13
TORSDOF 8
REMARK  Name = ../refined-set-2016/3v5t/3v5t_pocket.pdb
REMARK  232 active torsions:
REMARK  status: ('A' for Active; 'I' for Inactive)
REMARK    1  A    between atoms: _1  and  _3
REMARK    2  A    between atoms: _3  and  _4
REMARK    3  A    between atoms: _3  and  _6
REMARK    4  A    between atoms: _6  and  _7
REMARK    5  A    between atoms: _7  and  _8
REMARK    6  A    between atoms: _8  and  _9
REMARK    7  A    between atoms: _18  and  _20
REMARK    8  A    between atoms: _20  and  _21
REMARK    9  A    between atoms: _20  and  _23
REMARK   10  A    between atoms: _26  and  _28
REMARK   11  A    between atoms: _28  and  _29
REMARK   12  A    between atoms: _28  and  _31
REMARK   13  A    between atoms: _31  and  _32
REMARK   14  A    between atoms: _35  and  _37
REMARK   15  A    between atoms: _37  and  _38
REMARK   16  A    between atoms: _40  and  _42
REMARK   17  A    between atoms: _42  and  _43
REMARK   18  A    between atoms: _42  and  _45
REMARK   19  A    between atoms: _45  and  _46
REMARK   20  A    between atoms: _46  and  _47
REMARK   21  A    between atoms: _47  and  _48
REMARK   22  A    between atoms: _48  and  _49
REMARK   23  A    between atoms: _53  and  _55
REMARK   24  A    between atoms: _55  and  _56
REMARK   25  A    between atoms: _58  and  _60
REMARK   26  A    between atoms: _60  and  _61
REMARK   27  A    between atoms: _60  and  _63
REMARK   28  A    between atoms: _63  and  _64
REMARK   29  A    between atoms: _66  and  _68
REMARK   30  A    between atoms: _68  and  _69
REMARK   31  A    between atoms: _71  and  _73
REMARK   32  A    between atoms: _73  and  _74
REMARK   33  A    between atoms: _73  and  _76
REMARK   34  A    between atoms: _76  and  _77
REMARK   35  A    between atoms: _77  and  _78
REMARK   36  A    between atoms: _81  and  _83
REMARK   37  A    between atoms: _83  and  _84
REMARK   38  A    between atoms: _83  and  _86
REMARK   39  A    between atoms: _89  and  _91
REMARK   40  A    between atoms: _91  and  _92
REMARK   41  A    between atoms: _91  and  _94
REMARK   42  A    between atoms: _94  and  _95
REMARK   43  A    between atoms: _98  and  _100
REMARK   44  A    between atoms: _100  and  _101
REMARK   45  A    between atoms: _100  and  _103
REMARK   46  A    between atoms: _103  and  _104
REMARK   47  A    between atoms: _107  and  _109
REMARK   48  A    between atoms: _109  and  _110
REMARK   49  A    between atoms: _109  and  _112
REMARK   50  A    between atoms: _114  and  _116
REMARK   51  A    between atoms: _116  and  _117
REMARK   52  A    between atoms: _120  and  _122
REMARK   53  A    between atoms: _122  and  _123
REMARK   54  A    between atoms: _122  and  _125
REMARK   55  A    between atoms: _128  and  _130
REMARK   56  A    between atoms: _130  and  _131
REMARK   57  A    between atoms: _130  and  _133
REMARK   58  A    between atoms: _133  and  _134
REMARK   59  A    between atoms: _134  and  _135
REMARK   60  A    between atoms: _135  and  _136
REMARK   61  A    between atoms: _136  and  _137
REMARK   62  A    between atoms: _141  and  _143
REMARK   63  A    between atoms: _143  and  _144
REMARK   64  A    between atoms: _143  and  _146
REMARK   65  A    between atoms: _149  and  _151
REMARK   66  A    between atoms: _151  and  _152
REMARK   67  A    between atoms: _151  and  _154
REMARK   68  A    between atoms: _154  and  _155
REMARK   69  A    between atoms: _158  and  _160
REMARK   70  A    between atoms: _160  and  _161
REMARK   71  A    between atoms: _160  and  _163
REMARK   72  A    between atoms: _163  and  _164
REMARK   73  A    between atoms: _164  and  _165
REMARK   74  A    between atoms: _168  and  _170
REMARK   75  A    between atoms: _170  and  _171
REMARK   76  A    between atoms: _170  and  _173
REMARK   77  A    between atoms: _176  and  _178
REMARK   78  A    between atoms: _178  and  _179
REMARK   79  A    between atoms: _178  and  _181
REMARK   80  A    between atoms: _181  and  _182
REMARK   81  A    between atoms: _185  and  _187
REMARK   82  A    between atoms: _187  and  _188
REMARK   83  A    between atoms: _187  and  _190
REMARK   84  A    between atoms: _190  and  _191
REMARK   85  A    between atoms: _191  and  _192
REMARK   86  A    between atoms: _194  and  _196
REMARK   87  A    between atoms: _196  and  _197
REMARK   88  A    between atoms: _196  and  _199
REMARK   89  A    between atoms: _199  and  _200
REMARK   90  A    between atoms: _200  and  _201
REMARK   91  A    between atoms: _201  and  _202
REMARK   92  A    between atoms: _202  and  _203
REMARK   93  A    between atoms: _207  and  _209
REMARK   94  A    between atoms: _209  and  _210
REMARK   95  A    between atoms: _209  and  _212
REMARK   96  A    between atoms: _212  and  _213
REMARK   97  A    between atoms: _216  and  _218
REMARK   98  A    between atoms: _218  and  _219
REMARK   99  A    between atoms: _218  and  _221
REMARK  100  A    between atoms: _221  and  _222
REMARK  101  A    between atoms: _227  and  _228
REMARK  102  A    between atoms: _230  and  _232
REMARK  103  A    between atoms: _232  and  _233
REMARK  104  A    between atoms: _232  and  _235
REMARK  105  A    between atoms: _235  and  _236
REMARK  106  A    between atoms: _236  and  _237
REMARK  107  A    between atoms: _240  and  _242
REMARK  108  A    between atoms: _242  and  _243
REMARK  109  A    between atoms: _242  and  _245
REMARK  110  A    between atoms: _245  and  _246
REMARK  111  A    between atoms: _252  and  _254
REMARK  112  A    between atoms: _254  and  _255
REMARK  113  A    between atoms: _254  and  _257
REMARK  114  A    between atoms: _257  and  _258
REMARK  115  A    between atoms: _263  and  _264
REMARK  116  A    between atoms: _266  and  _268
REMARK  117  A    between atoms: _268  and  _269
REMARK  118  A    between atoms: _268  and  _271
REMARK  119  A    between atoms: _271  and  _272
REMARK  120  A    between atoms: _275  and  _277
REMARK  121  A    between atoms: _277  and  _278
REMARK  122  A    between atoms: _277  and  _280
REMARK  123  A    between atoms: _283  and  _285
REMARK  124  A    between atoms: _285  and  _286
REMARK  125  A    between atoms: _288  and  _290
REMARK  126  A    between atoms: _290  and  _291
REMARK  127  A    between atoms: _290  and  _293
REMARK  128  A    between atoms: _293  and  _294
REMARK  129  A    between atoms: _294  and  _295
REMARK  130  A    between atoms: _298  and  _300
REMARK  131  A    between atoms: _300  and  _301
REMARK  132  A    between atoms: _300  and  _303
REMARK  133  A    between atoms: _306  and  _308
REMARK  134  A    between atoms: _308  and  _309
REMARK  135  A    between atoms: _308  and  _311
REMARK  136  A    between atoms: _311  and  _312
REMARK  137  A    between atoms: _317  and  _318
REMARK  138  A    between atoms: _320  and  _322
REMARK  139  A    between atoms: _322  and  _323
REMARK  140  A    between atoms: _322  and  _325
REMARK  141  A    between atoms: _325  and  _326
REMARK  142  A    between atoms: _329  and  _331
REMARK  143  A    between atoms: _331  and  _332
REMARK  144  A    between atoms: _334  and  _336
REMARK  145  A    between atoms: _336  and  _337
REMARK  146  A    between atoms: _339  and  _341
REMARK  147  A    between atoms: _341  and  _342
REMARK  148  A    between atoms: _341  and  _344
REMARK  149  A    between atoms: _344  and  _345
REMARK  150  A    between atoms: _345  and  _346
REMARK  151  A    between atoms: _349  and  _351
REMARK  152  A    between atoms: _351  and  _352
REMARK  153  A    between atoms: _351  and  _354
REMARK  154  A    between atoms: _354  and  _355
REMARK  155  A    between atoms: _358  and  _360
REMARK  156  A    between atoms: _360  and  _361
REMARK  157  A    between atoms: _360  and  _363
REMARK  158  A    between atoms: _363  and  _364
REMARK  159  A    between atoms: _367  and  _369
REMARK  160  A    between atoms: _369  and  _370
REMARK  161  A    between atoms: _369  and  _372
REMARK  162  A    between atoms: _372  and  _373
REMARK  163  A    between atoms: _373  and  _374
REMARK  164  A    between atoms: _377  and  _379
REMARK  165  A    between atoms: _379  and  _380
REMARK  166  A    between atoms: _379  and  _382
REMARK  167  A    between atoms: _382  and  _383
REMARK  168  A    between atoms: _388  and  _390
REMARK  169  A    between atoms: _390  and  _391
REMARK  170  A    between atoms: _390  and  _393
REMARK  171  A    between atoms: _393  and  _394
REMARK  172  A    between atoms: _397  and  _399
REMARK  173  A    between atoms: _399  and  _400
REMARK  174  A    between atoms: _399  and  _402
REMARK  175  A    between atoms: _402  and  _403
REMARK  176  A    between atoms: _406  and  _408
REMARK  177  A    between atoms: _408  and  _409
REMARK  178  A    between atoms: _408  and  _411
REMARK  179  A    between atoms: _411  and  _412
REMARK  180  A    between atoms: _415  and  _417
REMARK  181  A    between atoms: _417  and  _418
REMARK  182  A    between atoms: _417  and  _420
REMARK  183  A    between atoms: _420  and  _421
REMARK  184  A    between atoms: _421  and  _422
REMARK  185  A    between atoms: _425  and  _427
REMARK  186  A    between atoms: _427  and  _428
REMARK  187  A    between atoms: _427  and  _430
REMARK  188  A    between atoms: _430  and  _431
REMARK  189  A    between atoms: _431  and  _432
REMARK  190  A    between atoms: _432  and  _433
REMARK  191  A    between atoms: _442  and  _444
REMARK  192  A    between atoms: _444  and  _445
REMARK  193  A    between atoms: _444  and  _447
REMARK  194  A    between atoms: _447  and  _448
REMARK  195  A    between atoms: _451  and  _453
REMARK  196  A    between atoms: _453  and  _454
REMARK  197  A    between atoms: _453  and  _456
REMARK  198  A    between atoms: _456  and  _457
REMARK  199  A    between atoms: _460  and  _462
REMARK  200  A    between atoms: _462  and  _463
REMARK  201  A    between atoms: _462  and  _465
REMARK  202  A    between atoms: _465  and  _466
REMARK  203  A    between atoms: _469  and  _471
REMARK  204  A    between atoms: _471  and  _472
REMARK  205  A    between atoms: _471  and  _474
REMARK  206  A    between atoms: _474  and  _475
REMARK  207  A    between atoms: _481  and  _483
REMARK  208  A    between atoms: _483  and  _484
REMARK  209  A    between atoms: _486  and  _488
REMARK  210  A    between atoms: _488  and  _489
REMARK  211  A    between atoms: _488  and  _491
REMARK  212  A    between atoms: _491  and  _492
REMARK  213  A    between atoms: _495  and  _497
REMARK  214  A    between atoms: _497  and  _498
REMARK  215  A    between atoms: _497  and  _500
REMARK  216  A    between atoms: _500  and  _501
REMARK  217  A    between atoms: _503  and  _505
REMARK  218  A    between atoms: _505  and  _506
REMARK  219  A    between atoms: _505  and  _508
REMARK  220  A    between atoms: _508  and  _509
REMARK  221  A    between atoms: _515  and  _517
REMARK  222  A    between atoms: _517  and  _518
REMARK  223  A    between atoms: _517  and  _520
REMARK  224  A    between atoms: _520  and  _521
REMARK  225  A    between atoms: _521  and  _522
REMARK  226  A    between atoms: _522  and  _523
REMARK  227  A    between atoms: _523  and  _524
REMARK  228  A    between atoms: _528  and  _530
REMARK  229  A    between atoms: _530  and  _531
REMARK  230  A    between atoms: _530  and  _533
REMARK  231  A    between atoms: _533  and  _534
REMARK  232  A    between atoms: _534  and  _535
REMARK                            x       y       z     vdW  Elec       q    Type
REMARK                         _______ _______ _______ _____ _____    ______ ____
ROOT
ATOM      1  CA  LEU A   1       1.194   9.006  65.030  0.00  0.00    +0.133 C 
ENDROOT
BRANCH   1   2
ATOM      2  N   LEU A   1      -0.155   9.127  65.612  0.00  0.00    -0.239 NA
ATOM      3  H   LEU A   1      -0.447  10.027  66.043  0.00  0.00    +0.142 HD
ENDBRANCH   1   2
BRANCH   1   4
ATOM      4  C   LEU A   1       2.074   7.922  65.707  0.00  0.00    +0.224 C 
ATOM      5  O   LEU A   1       2.901   7.301  65.052  0.00  0.00    -0.287 OA
ENDBRANCH   1   4
BRANCH   1   6
ATOM      6  CB  LEU A   1       1.926  10.339  65.057  0.00  0.00    +0.025 C 
BRANCH   6   7
ATOM      7  CG  LEU A   1       1.329  11.529  64.333  0.00  0.00    +0.002 C 
ATOM      8  CD2 LEU A   1       2.026  12.800  64.807  0.00  0.00    +0.000 C 
ATOM      9  CD1 LEU A   1       1.447  11.364  62.824  0.00  0.00    +0.000 C 
ENDBRANCH   6   7
ENDBRANCH   1   6
TORSDOF 4
REMARK  Name = ../refined-set-2016/3v5t/3v5t_pocket.pdb
REMARK  232 active torsions:
REMARK  status: ('A' for Active; 'I' for Inactive)
REMARK    1  A    between atoms: _1  and  _3
REMARK    2  A    between atoms: _3  and  _4
REMARK    3  A    between atoms: _3  and  _6
REMARK    4  A    between atoms: _6  and  _7
REMARK    5  A    between atoms: _7  and  _8
REMARK    6  A    between atoms: _8  and  _9
REMARK    7  A    between atoms: _18  and  _20
REMARK    8  A    between atoms: _20  and  _21
REMARK    9  A    between atoms: _20  and  _23
REMARK   10  A    between atoms: _26  and  _28
REMARK   11  A    between atoms: _28  and  _29
REMARK   12  A    between atoms: _28  and  _31
REMARK   13  A    between atoms: _31  and  _32
REMARK   14  A    between atoms: _35  and  _37
REMARK   15  A    between atoms: _37  and  _38
REMARK   16  A    between atoms: _40  and  _42
REMARK   17  A    between atoms: _42  and  _43
REMARK   18  A    between atoms: _42  and  _45
REMARK   19  A    between atoms: _45  and  _46
REMARK   20  A    between atoms: _46  and  _47
REMARK   21  A    between atoms: _47  and  _48
REMARK   22  A    between atoms: _48  and  _49
REMARK   23  A    between atoms: _53  and  _55
REMARK   24  A    between atoms: _55  and  _56
REMARK   25  A    between atoms: _58  and  _60
REMARK   26  A    between atoms: _60  and  _61
REMARK   27  A    between atoms: _60  and  _63
REMARK   28  A    between atoms: _63  and  _64
REMARK   29  A    between atoms: _66  and  _68
REMARK   30  A    between atoms: _68  and  _69
REMARK   31  A    between atoms: _71  and  _73
REMARK   32  A    between atoms: _73  and  _74
REMARK   33  A    between atoms: _73  and  _76
REMARK   34  A    between atoms: _76  and  _77
REMARK   35  A    between atoms: _77  and  _78
REMARK   36  A    between atoms: _81  and  _83
REMARK   37  A    between atoms: _83  and  _84
REMARK   38  A    between atoms: _83  and  _86
REMARK   39  A    between atoms: _89  and  _91
REMARK   40  A    between atoms: _91  and  _92
REMARK   41  A    between atoms: _91  and  _94
REMARK   42  A    between atoms: _94  and  _95
REMARK   43  A    between atoms: _98  and  _100
REMARK   44  A    between atoms: _100  and  _101
REMARK   45  A    between atoms: _100  and  _103
REMARK   46  A    between atoms: _103  and  _104
REMARK   47  A    between atoms: _107  and  _109
REMARK   48  A    between atoms: _109  and  _110
REMARK   49  A    between atoms: _109  and  _112
REMARK   50  A    between atoms: _114  and  _116
REMARK   51  A    between atoms: _116  and  _117
REMARK   52  A    between atoms: _120  and  _122
REMARK   53  A    between atoms: _122  and  _123
REMARK   54  A    between atoms: _122  and  _125
REMARK   55  A    between atoms: _128  and  _130
REMARK   56  A    between atoms: _130  and  _131
REMARK   57  A    between atoms: _130  and  _133
REMARK   58  A    between atoms: _133  and  _134
REMARK   59  A    between atoms: _134  and  _135
REMARK   60  A    between atoms: _135  and  _136
REMARK   61  A    between atoms: _136  and  _137
REMARK   62  A    between atoms: _141  and  _143
REMARK   63  A    between atoms: _143  and  _144
REMARK   64  A    between atoms: _143  and  _146
REMARK   65  A    between atoms: _149  and  _151
REMARK   66  A    between atoms: _151  and  _152
REMARK   67  A    between atoms: _151  and  _154
REMARK   68  A    between atoms: _154  and  _155
REMARK   69  A    between atoms: _158  and  _160
REMARK   70  A    between atoms: _160  and  _161
REMARK   71  A    between atoms: _160  and  _163
REMARK   72  A    between atoms: _163  and  _164
REMARK   73  A    between atoms: _164  and  _165
REMARK   74  A    between atoms: _168  and  _170
REMARK   75  A    between atoms: _170  and  _171
REMARK   76  A    between atoms: _170  and  _173
REMARK   77  A    between atoms: _176  and  _178
REMARK   78  A    between atoms: _178  and  _179
REMARK   79  A    between atoms: _178  and  _181
REMARK   80  A    between atoms: _181  and  _182
REMARK   81  A    between atoms: _185  and  _187
REMARK   82  A    between atoms: _187  and  _188
REMARK   83  A    between atoms: _187  and  _190
REMARK   84  A    between atoms: _190  and  _191
REMARK   85  A    between atoms: _191  and  _192
REMARK   86  A    between atoms: _194  and  _196
REMARK   87  A    between atoms: _196  and  _197
REMARK   88  A    between atoms: _196  and  _199
REMARK   89  A    between atoms: _199  and  _200
REMARK   90  A    between atoms: _200  and  _201
REMARK   91  A    between atoms: _201  and  _202
REMARK   92  A    between atoms: _202  and  _203
REMARK   93  A    between atoms: _207  and  _209
REMARK   94  A    between atoms: _209  and  _210
REMARK   95  A    between atoms: _209  and  _212
REMARK   96  A    between atoms: _212  and  _213
REMARK   97  A    between atoms: _216  and  _218
REMARK   98  A    between atoms: _218  and  _219
REMARK   99  A    between atoms: _218  and  _221
REMARK  100  A    between atoms: _221  and  _222
REMARK  101  A    between atoms: _227  and  _228
REMARK  102  A    between atoms: _230  and  _232
REMARK  103  A    between atoms: _232  and  _233
REMARK  104  A    between atoms: _232  and  _235
REMARK  105  A    between atoms: _235  and  _236
REMARK  106  A    between atoms: _236  and  _237
REMARK  107  A    between atoms: _240  and  _242
REMARK  108  A    between atoms: _242  and  _243
REMARK  109  A    between atoms: _242  and  _245
REMARK  110  A    between atoms: _245  and  _246
REMARK  111  A    between atoms: _252  and  _254
REMARK  112  A    between atoms: _254  and  _255
REMARK  113  A    between atoms: _254  and  _257
REMARK  114  A    between atoms: _257  and  _258
REMARK  115  A    between atoms: _263  and  _264
REMARK  116  A    between atoms: _266  and  _268
REMARK  117  A    between atoms: _268  and  _269
REMARK  118  A    between atoms: _268  and  _271
REMARK  119  A    between atoms: _271  and  _272
REMARK  120  A    between atoms: _275  and  _277
REMARK  121  A    between atoms: _277  and  _278
REMARK  122  A    between atoms: _277  and  _280
REMARK  123  A    between atoms: _283  and  _285
REMARK  124  A    between atoms: _285  and  _286
REMARK  125  A    between atoms: _288  and  _290
REMARK  126  A    between atoms: _290  and  _291
REMARK  127  A    between atoms: _290  and  _293
REMARK  128  A    between atoms: _293  and  _294
REMARK  129  A    between atoms: _294  and  _295
REMARK  130  A    between atoms: _298  and  _300
REMARK  131  A    between atoms: _300  and  _301
REMARK  132  A    between atoms: _300  and  _303
REMARK  133  A    between atoms: _306  and  _308
REMARK  134  A    between atoms: _308  and  _309
REMARK  135  A    between atoms: _308  and  _311
REMARK  136  A    between atoms: _311  and  _312
REMARK  137  A    between atoms: _317  and  _318
REMARK  138  A    between atoms: _320  and  _322
REMARK  139  A    between atoms: _322  and  _323
REMARK  140  A    between atoms: _322  and  _325
REMARK  141  A    between atoms: _325  and  _326
REMARK  142  A    between atoms: _329  and  _331
REMARK  143  A    between atoms: _331  and  _332
REMARK  144  A    between atoms: _334  and  _336
REMARK  145  A    between atoms: _336  and  _337
REMARK  146  A    between atoms: _339  and  _341
REMARK  147  A    between atoms: _341  and  _342
REMARK  148  A    between atoms: _341  and  _344
REMARK  149  A    between atoms: _344  and  _345
REMARK  150  A    between atoms: _345  and  _346
REMARK  151  A    between atoms: _349  and  _351
REMARK  152  A    between atoms: _351  and  _352
REMARK  153  A    between atoms: _351  and  _354
REMARK  154  A    between atoms: _354  and  _355
REMARK  155  A    between atoms: _358  and  _360
REMARK  156  A    between atoms: _360  and  _361
REMARK  157  A    between atoms: _360  and  _363
REMARK  158  A    between atoms: _363  and  _364
REMARK  159  A    between atoms: _367  and  _369
REMARK  160  A    between atoms: _369  and  _370
REMARK  161  A    between atoms: _369  and  _372
REMARK  162  A    between atoms: _372  and  _373
REMARK  163  A    between atoms: _373  and  _374
REMARK  164  A    between atoms: _377  and  _379
REMARK  165  A    between atoms: _379  and  _380
REMARK  166  A    between atoms: _379  and  _382
REMARK  167  A    between atoms: _382  and  _383
REMARK  168  A    between atoms: _388  and  _390
REMARK  169  A    between atoms: _390  and  _391
REMARK  170  A    between atoms: _390  and  _393
REMARK  171  A    between atoms: _393  and  _394
REMARK  172  A    between atoms: _397  and  _399
REMARK  173  A    between atoms: _399  and  _400
REMARK  174  A    between atoms: _399  and  _402
REMARK  175  A    between atoms: _402  and  _403
REMARK  176  A    between atoms: _406  and  _408
REMARK  177  A    between atoms: _408  and  _409
REMARK  178  A    between atoms: _408  and  _411
REMARK  179  A    between atoms: _411  and  _412
REMARK  180  A    between atoms: _415  and  _417
REMARK  181  A    between atoms: _417  and  _418
REMARK  182  A    between atoms: _417  and  _420
REMARK  183  A    between atoms: _420  and  _421
REMARK  184  A    between atoms: _421  and  _422
REMARK  185  A    between atoms: _425  and  _427
REMARK  186  A    between atoms: _427  and  _428
REMARK  187  A    between atoms: _427  and  _430
REMARK  188  A    between atoms: _430  and  _431
REMARK  189  A    between atoms: _431  and  _432
REMARK  190  A    between atoms: _432  and  _433
REMARK  191  A    between atoms: _442  and  _444
REMARK  192  A    between atoms: _444  and  _445
REMARK  193  A    between atoms: _444  and  _447
REMARK  194  A    between atoms: _447  and  _448
REMARK  195  A    between atoms: _451  and  _453
REMARK  196  A    between atoms: _453  and  _454
REMARK  197  A    between atoms: _453  and  _456
REMARK  198  A    between atoms: _456  and  _457
REMARK  199  A    between atoms: _460  and  _462
REMARK  200  A    between atoms: _462  and  _463
REMARK  201  A    between atoms: _462  and  _465
REMARK  202  A    between atoms: _465  and  _466
REMARK  203  A    between atoms: _469  and  _471
REMARK  204  A    between atoms: _471  and  _472
REMARK  205  A    between atoms: _471  and  _474
REMARK  206  A    between atoms: _474  and  _475
REMARK  207  A    between atoms: _481  and  _483
REMARK  208  A    between atoms: _483  and  _484
REMARK  209  A    between atoms: _486  and  _488
REMARK  210  A    between atoms: _488  and  _489
REMARK  211  A    between atoms: _488  and  _491
REMARK  212  A    between atoms: _491  and  _492
REMARK  213  A    between atoms: _495  and  _497
REMARK  214  A    between atoms: _497  and  _498
REMARK  215  A    between atoms: _497  and  _500
REMARK  216  A    between atoms: _500  and  _501
REMARK  217  A    between atoms: _503  and  _505
REMARK  218  A    between atoms: _505  and  _506
REMARK  219  A    between atoms: _505  and  _508
REMARK  220  A    between atoms: _508  and  _509
REMARK  221  A    between atoms: _515  and  _517
REMARK  222  A    between atoms: _517  and  _518
REMARK  223  A    between atoms: _517  and  _520
REMARK  224  A    between atoms: _520  and  _521
REMARK  225  A    between atoms: _521  and  _522
REMARK  226  A    between atoms: _522  and  _523
REMARK  227  A    between atoms: _523  and  _524
REMARK  228  A    between atoms: _528  and  _530
REMARK  229  A    between atoms: _530  and  _531
REMARK  230  A    between atoms: _530  and  _533
REMARK  231  A    between atoms: _533  and  _534
REMARK  232  A    between atoms: _534  and  _535
REMARK                            x       y       z     vdW  Elec       q    Type
REMARK                         _______ _______ _______ _____ _____    ______ ____
ROOT
ATOM      1  CA  TYR A   4       7.899   6.335  69.974  0.00  0.00    +0.153 C 
ENDROOT
BRANCH   1   3
ATOM      2  C   LEU A   3       7.202   7.207  67.768  0.00  0.00    +0.241 C 
ATOM      3  N   TYR A   4       7.978   7.269  68.850  0.00  0.00    -0.297 N 
ATOM      4  H   TYR A   4       8.685   8.030  68.899  0.00  0.00    +0.150 HD
ATOM      5  O   LEU A   3       6.283   6.402  67.645  0.00  0.00    -0.273 OA
BRANCH   2   6
ATOM      6  CA  LEU A   3       7.487   8.247  66.657  0.00  0.00    +0.149 C 
BRANCH   6   8
ATOM      7  C   LYS A   2       8.845   7.362  64.812  0.00  0.00    +0.241 C 
ATOM      8  N   LEU A   3       7.651   7.611  65.347  0.00  0.00    -0.297 N 
ATOM      9  H   LEU A   3       6.800   7.343  64.813  0.00  0.00    +0.150 HD
ATOM     10  O   LYS A   2       9.889   7.810  65.255  0.00  0.00    -0.273 OA
BRANCH   7  11
ATOM     11  CA  LYS A   2       8.868   6.478  63.577  0.00  0.00    +0.149 C 
BRANCH  11  13
ATOM     12  C   MET A   1       9.036   8.107  61.765  0.00  0.00    +0.238 C 
ATOM     13  N   LYS A   2       9.595   7.159  62.507  0.00  0.00    -0.297 N 
ATOM     14  H   LYS A   2      10.583   6.892  62.321  0.00  0.00    +0.150 HD
ATOM     15  O   MET A   1       7.851   8.414  61.845  0.00  0.00    -0.274 OA
BRANCH  12  16
ATOM     16  CA  MET A   1       9.948   8.817  60.786  0.00  0.00    +0.146 C 
BRANCH  16  17
ATOM     17  N   MET A   1       9.283   8.912  59.465  0.00  0.00    -0.238 NA
ATOM     18  H   MET A   1       9.277   9.828  58.973  0.00  0.00    +0.142 HD
ENDBRANCH  16  17
BRANCH  16  19
ATOM     19  CB  MET A   1      10.295  10.210  61.356  0.00  0.00    +0.038 C 
BRANCH  19  20
ATOM     20  CG  MET A   1      11.243  10.205  62.554  0.00  0.00    +0.060 C 
BRANCH  20  21
ATOM     21  SD  MET A   1      11.098  11.519  63.811  0.00  0.00    -0.139 S 
ATOM     22  CE  MET A   1       9.473  11.166  64.477  0.00  0.00    +0.069 C 
ENDBRANCH  20  21
ENDBRANCH  19  20
ENDBRANCH  16  19
ENDBRANCH  12  16
ENDBRANCH  11  13
BRANCH  11  23
ATOM     23  CB  LYS A   2       9.527   5.127  63.906  0.00  0.00    +0.029 C 
BRANCH  23  24
ATOM     24  CG  LYS A   2       8.754   4.249  64.877  0.00  0.00    +0.000 C 
BRANCH  24  25
ATOM     25  CD  LYS A   2       7.448   3.732  64.284  0.00  0.00    -0.024 C 
BRANCH  25  26
ATOM     26  CE  LYS A   2       6.531   3.150  65.354  0.00  0.00    -0.086 C 
BRANCH  26  27
ATOM     27  NZ  LYS A   2       5.090   3.295  64.980  0.00  0.00    +0.380 N 
ATOM     28  HZ1 LYS A   2       4.496   2.888  65.730  0.00  0.00    -0.089 HD
ATOM     29  HZ2 LYS A   2       4.863   4.303  64.864  0.00  0.00    -0.089 HD
ATOM     30  HZ3 LYS A   2       4.913   2.794  64.086  0.00  0.00    -0.089 HD
ENDBRANCH  26  27
ENDBRANCH  25  26
ENDBRANCH  24  25
ENDBRANCH  23  24
ENDBRANCH  11  23
ENDBRANCH   7  11
ENDBRANCH   6   8
BRANCH   6  31
ATOM     31  CB  LEU A   3       6.359   9.278  66.617  0.00  0.00    +0.029 C 
BRANCH  31  32
ATOM     32  CG  LEU A   3       6.203  10.025  67.949  0.00  0.00    +0.002 C 
ATOM     33  CD2 LEU A   3       7.375  10.974  68.164  0.00  0.00    +0.000 C 
ATOM     34  CD1 LEU A   3       4.872  10.747  68.048  0.00  0.00    +0.000 C 
ENDBRANCH  31  32
ENDBRANCH   6  31
ENDBRANCH   2   6
ENDBRANCH   1   3
BRANCH   1  35
ATOM     35  C   TYR A   4       7.158   6.912  71.182  0.00  0.00    +0.241 C 
ATOM     36  N   GLU A   5       7.614   8.063  71.686  0.00  0.00    -0.297 N 
ATOM     37  H   GLU A   5       8.385   8.553  71.190  0.00  0.00    +0.150 HD
ATOM     38  O   TYR A   4       6.232   6.291  71.679  0.00  0.00    -0.273 OA
BRANCH  36  39
ATOM     39  CA  GLU A   5       7.068   8.669  72.920  0.00  0.00    +0.149 C 
BRANCH  39  40
ATOM     40  C   GLU A   5       6.824  10.194  72.815  0.00  0.00    +0.241 C 
ATOM     41  N   PHE A   6       5.940  10.695  73.676  0.00  0.00    -0.298 N 
ATOM     42  H   PHE A   6       5.436  10.020  74.286  0.00  0.00    +0.150 HD
ATOM     43  O   GLU A   5       7.449  10.889  72.012  0.00  0.00    -0.273 OA
BRANCH  41  44
ATOM     44  CA  PHE A   6       5.615  12.122  73.838  0.00  0.00    +0.141 C 
BRANCH  44  45
ATOM     45  C   PHE A   6       5.645  12.507  75.317  0.00  0.00    +0.227 C 
ATOM     46  O   PHE A   6       4.956  11.899  76.114  0.00  0.00    -0.286 OA
ENDBRANCH  44  45
BRANCH  44  47
ATOM     47  CB  PHE A   6       4.207  12.359  73.309  0.00  0.00    +0.054 C 
BRANCH  47  48
ATOM     48  CG  PHE A   6       3.683  13.756  73.504  0.00  0.00    -0.020 A 
ATOM     49  CD2 PHE A   6       2.809  14.053  74.544  0.00  0.00    -0.004 A 
ATOM     50  CE2 PHE A   6       2.305  15.343  74.710  0.00  0.00    -0.000 A 
ATOM     51  CZ  PHE A   6       2.652  16.343  73.814  0.00  0.00    -0.000 A 
ATOM     52  CE1 PHE A   6       3.497  16.055  72.771  0.00  0.00    -0.000 A 
ATOM     53  CD1 PHE A   6       4.000  14.762  72.612  0.00  0.00    -0.004 A 
ENDBRANCH  47  48
ENDBRANCH  44  47
ENDBRANCH  41  44
ENDBRANCH  39  40
BRANCH  39  54
ATOM     54  CB  GLU A   5       8.012   8.411  74.109  0.00  0.00    +0.041 C 
BRANCH  54  55
ATOM     55  CG  GLU A   5       8.551   6.991  74.274  0.00  0.00    +0.116 C 
BRANCH  55  56
ATOM     56  CD  GLU A   5       7.551   6.003  74.864  0.00  0.00    +0.365 C 
ATOM     57  OE2 GLU A   5       6.570   6.438  75.516  0.00  0.00    -0.246 OA
ATOM     58  OE1 GLU A   5       7.755   4.777  74.682  0.00  0.00    -0.246 OA
ENDBRANCH  55  56
ENDBRANCH  54  55
ENDBRANCH  39  54
ENDBRANCH  36  39
ENDBRANCH   1  35
BRANCH   1  59
ATOM     59  CB  TYR A   4       9.295   5.969  70.487  0.00  0.00    +0.055 C 
BRANCH  59  60
ATOM     60  CG  TYR A   4      10.220   5.292  69.523  0.00  0.00    -0.020 A 
ATOM     61  CD2 TYR A   4      11.561   5.647  69.472  0.00  0.00    -0.001 A 
ATOM     62  CE2 TYR A   4      12.430   5.019  68.610  0.00  0.00    +0.036 A 
ATOM     63  CZ  TYR A   4      11.968   4.011  67.795  0.00  0.00    +0.134 A 
ATOM     64  CE1 TYR A   4      10.649   3.624  67.835  0.00  0.00    +0.036 A 
ATOM     65  CD1 TYR A   4       9.784   4.257  68.707  0.00  0.00    -0.001 A 
BRANCH  63  66
ATOM     66  OH  TYR A   4      12.839   3.386  66.937  0.00  0.00    -0.506 OA
ATOM     67  HH  TYR A   4      12.354   2.691  66.425  0.00  0.00    +0.292 HD
ENDBRANCH  63  66
ENDBRANCH  59  60
ENDBRANCH   1  59
TORSDOF 30
REMARK  Name = ../refined-set-2016/3v5t/3v5t_pocket.pdb
REMARK  232 active torsions:
REMARK  status: ('A' for Active; 'I' for Inactive)
REMARK    1  A    between atoms: _1  and  _3
REMARK    2  A    between atoms: _3  and  _4
REMARK    3  A    between atoms: _3  and  _6
REMARK    4  A    between atoms: _6  and  _7
REMARK    5  A    between atoms: _7  and  _8
REMARK    6  A    between atoms: _8  and  _9
REMARK    7  A    between atoms: _18  and  _20
REMARK    8  A    between atoms: _20  and  _21
REMARK    9  A    between atoms: _20  and  _23
REMARK   10  A    between atoms: _26  and  _28
REMARK   11  A    between atoms: _28  and  _29
REMARK   12  A    between atoms: _28  and  _31
REMARK   13  A    between atoms: _31  and  _32
REMARK   14  A    between atoms: _35  and  _37
REMARK   15  A    between atoms: _37  and  _38
REMARK   16  A    between atoms: _40  and  _42
REMARK   17  A    between atoms: _42  and  _43
REMARK   18  A    between atoms: _42  and  _45
REMARK   19  A    between atoms: _45  and  _46
REMARK   20  A    between atoms: _46  and  _47
REMARK   21  A    between atoms: _47  and  _48
REMARK   22  A    between atoms: _48  and  _49
REMARK   23  A    between atoms: _53  and  _55
REMARK   24  A    between atoms: _55  and  _56
REMARK   25  A    between atoms: _58  and  _60
REMARK   26  A    between atoms: _60  and  _61
REMARK   27  A    between atoms: _60  and  _63
REMARK   28  A    between atoms: _63  and  _64
REMARK   29  A    between atoms: _66  and  _68
REMARK   30  A    between atoms: _68  and  _69
REMARK   31  A    between atoms: _71  and  _73
REMARK   32  A    between atoms: _73  and  _74
REMARK   33  A    between atoms: _73  and  _76
REMARK   34  A    between atoms: _76  and  _77
REMARK   35  A    between atoms: _77  and  _78
REMARK   36  A    between atoms: _81  and  _83
REMARK   37  A    between atoms: _83  and  _84
REMARK   38  A    between atoms: _83  and  _86
REMARK   39  A    between atoms: _89  and  _91
REMARK   40  A    between atoms: _91  and  _92
REMARK   41  A    between atoms: _91  and  _94
REMARK   42  A    between atoms: _94  and  _95
REMARK   43  A    between atoms: _98  and  _100
REMARK   44  A    between atoms: _100  and  _101
REMARK   45  A    between atoms: _100  and  _103
REMARK   46  A    between atoms: _103  and  _104
REMARK   47  A    between atoms: _107  and  _109
REMARK   48  A    between atoms: _109  and  _110
REMARK   49  A    between atoms: _109  and  _112
REMARK   50  A    between atoms: _114  and  _116
REMARK   51  A    between atoms: _116  and  _117
REMARK   52  A    between atoms: _120  and  _122
REMARK   53  A    between atoms: _122  and  _123
REMARK   54  A    between atoms: _122  and  _125
REMARK   55  A    between atoms: _128  and  _130
REMARK   56  A    between atoms: _130  and  _131
REMARK   57  A    between atoms: _130  and  _133
REMARK   58  A    between atoms: _133  and  _134
REMARK   59  A    between atoms: _134  and  _135
REMARK   60  A    between atoms: _135  and  _136
REMARK   61  A    between atoms: _136  and  _137
REMARK   62  A    between atoms: _141  and  _143
REMARK   63  A    between atoms: _143  and  _144
REMARK   64  A    between atoms: _143  and  _146
REMARK   65  A    between atoms: _149  and  _151
REMARK   66  A    between atoms: _151  and  _152
REMARK   67  A    between atoms: _151  and  _154
REMARK   68  A    between atoms: _154  and  _155
REMARK   69  A    between atoms: _158  and  _160
REMARK   70  A    between atoms: _160  and  _161
REMARK   71  A    between atoms: _160  and  _163
REMARK   72  A    between atoms: _163  and  _164
REMARK   73  A    between atoms: _164  and  _165
REMARK   74  A    between atoms: _168  and  _170
REMARK   75  A    between atoms: _170  and  _171
REMARK   76  A    between atoms: _170  and  _173
REMARK   77  A    between atoms: _176  and  _178
REMARK   78  A    between atoms: _178  and  _179
REMARK   79  A    between atoms: _178  and  _181
REMARK   80  A    between atoms: _181  and  _182
REMARK   81  A    between atoms: _185  and  _187
REMARK   82  A    between atoms: _187  and  _188
REMARK   83  A    between atoms: _187  and  _190
REMARK   84  A    between atoms: _190  and  _191
REMARK   85  A    between atoms: _191  and  _192
REMARK   86  A    between atoms: _194  and  _196
REMARK   87  A    between atoms: _196  and  _197
REMARK   88  A    between atoms: _196  and  _199
REMARK   89  A    between atoms: _199  and  _200
REMARK   90  A    between atoms: _200  and  _201
REMARK   91  A    between atoms: _201  and  _202
REMARK   92  A    between atoms: _202  and  _203
REMARK   93  A    between atoms: _207  and  _209
REMARK   94  A    between atoms: _209  and  _210
REMARK   95  A    between atoms: _209  and  _212
REMARK   96  A    between atoms: _212  and  _213
REMARK   97  A    between atoms: _216  and  _218
REMARK   98  A    between atoms: _218  and  _219
REMARK   99  A    between atoms: _218  and  _221
REMARK  100  A    between atoms: _221  and  _222
REMARK  101  A    between atoms: _227  and  _228
REMARK  102  A    between atoms: _230  and  _232
REMARK  103  A    between atoms: _232  and  _233
REMARK  104  A    between atoms: _232  and  _235
REMARK  105  A    between atoms: _235  and  _236
REMARK  106  A    between atoms: _236  and  _237
REMARK  107  A    between atoms: _240  and  _242
REMARK  108  A    between atoms: _242  and  _243
REMARK  109  A    between atoms: _242  and  _245
REMARK  110  A    between atoms: _245  and  _246
REMARK  111  A    between atoms: _252  and  _254
REMARK  112  A    between atoms: _254  and  _255
REMARK  113  A    between atoms: _254  and  _257
REMARK  114  A    between atoms: _257  and  _258
REMARK  115  A    between atoms: _263  and  _264
REMARK  116  A    between atoms: _266  and  _268
REMARK  117  A    between atoms: _268  and  _269
REMARK  118  A    between atoms: _268  and  _271
REMARK  119  A    between atoms: _271  and  _272
REMARK  120  A    between atoms: _275  and  _277
REMARK  121  A    between atoms: _277  and  _278
REMARK  122  A    between atoms: _277  and  _280
REMARK  123  A    between atoms: _283  and  _285
REMARK  124  A    between atoms: _285  and  _286
REMARK  125  A    between atoms: _288  and  _290
REMARK  126  A    between atoms: _290  and  _291
REMARK  127  A    between atoms: _290  and  _293
REMARK  128  A    between atoms: _293  and  _294
REMARK  129  A    between atoms: _294  and  _295
REMARK  130  A    between atoms: _298  and  _300
REMARK  131  A    between atoms: _300  and  _301
REMARK  132  A    between atoms: _300  and  _303
REMARK  133  A    between atoms: _306  and  _308
REMARK  134  A    between atoms: _308  and  _309
REMARK  135  A    between atoms: _308  and  _311
REMARK  136  A    between atoms: _311  and  _312
REMARK  137  A    between atoms: _317  and  _318
REMARK  138  A    between atoms: _320  and  _322
REMARK  139  A    between atoms: _322  and  _323
REMARK  140  A    between atoms: _322  and  _325
REMARK  141  A    between atoms: _325  and  _326
REMARK  142  A    between atoms: _329  and  _331
REMARK  143  A    between atoms: _331  and  _332
REMARK  144  A    between atoms: _334  and  _336
REMARK  145  A    between atoms: _336  and  _337
REMARK  146  A    between atoms: _339  and  _341
REMARK  147  A    between atoms: _341  and  _342
REMARK  148  A    between atoms: _341  and  _344
REMARK  149  A    between atoms: _344  and  _345
REMARK  150  A    between atoms: _345  and  _346
REMARK  151  A    between atoms: _349  and  _351
REMARK  152  A    between atoms: _351  and  _352
REMARK  153  A    between atoms: _351  and  _354
REMARK  154  A    between atoms: _354  and  _355
REMARK  155  A    between atoms: _358  and  _360
REMARK  156  A    between atoms: _360  and  _361
REMARK  157  A    between atoms: _360  and  _363
REMARK  158  A    between atoms: _363  and  _364
REMARK  159  A    between atoms: _367  and  _369
REMARK  160  A    between atoms: _369  and  _370
REMARK  161  A    between atoms: _369  and  _372
REMARK  162  A    between atoms: _372  and  _373
REMARK  163  A    between atoms: _373  and  _374
REMARK  164  A    between atoms: _377  and  _379
REMARK  165  A    between atoms: _379  and  _380
REMARK  166  A    between atoms: _379  and  _382
REMARK  167  A    between atoms: _382  and  _383
REMARK  168  A    between atoms: _388  and  _390
REMARK  169  A    between atoms: _390  and  _391
REMARK  170  A    between atoms: _390  and  _393
REMARK  171  A    between atoms: _393  and  _394
REMARK  172  A    between atoms: _397  and  _399
REMARK  173  A    between atoms: _399  and  _400
REMARK  174  A    between atoms: _399  and  _402
REMARK  175  A    between atoms: _402  and  _403
REMARK  176  A    between atoms: _406  and  _408
REMARK  177  A    between atoms: _408  and  _409
REMARK  178  A    between atoms: _408  and  _411
REMARK  179  A    between atoms: _411  and  _412
REMARK  180  A    between atoms: _415  and  _417
REMARK  181  A    between atoms: _417  and  _418
REMARK  182  A    between atoms: _417  and  _420
REMARK  183  A    between atoms: _420  and  _421
REMARK  184  A    between atoms: _421  and  _422
REMARK  185  A    between atoms: _425  and  _427
REMARK  186  A    between atoms: _427  and  _428
REMARK  187  A    between atoms: _427  and  _430
REMARK  188  A    between atoms: _430  and  _431
REMARK  189  A    between atoms: _431  and  _432
REMARK  190  A    between atoms: _432  and  _433
REMARK  191  A    between atoms: _442  and  _444
REMARK  192  A    between atoms: _444  and  _445
REMARK  193  A    between atoms: _444  and  _447
REMARK  194  A    between atoms: _447  and  _448
REMARK  195  A    between atoms: _451  and  _453
REMARK  196  A    between atoms: _453  and  _454
REMARK  197  A    between atoms: _453  and  _456
REMARK  198  A    between atoms: _456  and  _457
REMARK  199  A    between atoms: _460  and  _462
REMARK  200  A    between atoms: _462  and  _463
REMARK  201  A    between atoms: _462  and  _465
REMARK  202  A    between atoms: _465  and  _466
REMARK  203  A    between atoms: _469  and  _471
REMARK  204  A    between atoms: _471  and  _472
REMARK  205  A    between atoms: _471  and  _474
REMARK  206  A    between atoms: _474  and  _475
REMARK  207  A    between atoms: _481  and  _483
REMARK  208  A    between atoms: _483  and  _484
REMARK  209  A    between atoms: _486  and  _488
REMARK  210  A    between atoms: _488  and  _489
REMARK  211  A    between atoms: _488  and  _491
REMARK  212  A    between atoms: _491  and  _492
REMARK  213  A    between atoms: _495  and  _497
REMARK  214  A    between atoms: _497  and  _498
REMARK  215  A    between atoms: _497  and  _500
REMARK  216  A    between atoms: _500  and  _501
REMARK  217  A    between atoms: _503  and  _505
REMARK  218  A    between atoms: _505  and  _506
REMARK  219  A    between atoms: _505  and  _508
REMARK  220  A    between atoms: _508  and  _509
REMARK  221  A    between atoms: _515  and  _517
REMARK  222  A    between atoms: _517  and  _518
REMARK  223  A    between atoms: _517  and  _520
REMARK  224  A    between atoms: _520  and  _521
REMARK  225  A    between atoms: _521  and  _522
REMARK  226  A    between atoms: _522  and  _523
REMARK  227  A    between atoms: _523  and  _524
REMARK  228  A    between atoms: _528  and  _530
REMARK  229  A    between atoms: _530  and  _531
REMARK  230  A    between atoms: _530  and  _533
REMARK  231  A    between atoms: _533  and  _534
REMARK  232  A    between atoms: _534  and  _535
REMARK                            x       y       z     vdW  Elec       q    Type
REMARK                         _______ _______ _______ _____ _____    ______ ____
ROOT
ATOM      1  C   VAL A   6      17.746   7.606  63.624  0.00  0.00    +0.241 C 
ATOM      2  O   VAL A   6      17.635   6.416  63.365  0.00  0.00    -0.273 OA
ATOM      3  N   TYR A   7      18.061   8.528  62.716  0.00  0.00    -0.297 N 
ATOM      4  H   TYR A   7      17.952   9.530  62.973  0.00  0.00    +0.150 HD
ENDROOT
BRANCH   1   5
ATOM      5  CA  VAL A   6      17.508   8.103  65.055  0.00  0.00    +0.149 C 
BRANCH   5   7
ATOM      6  C   GLU A   5      15.084   7.770  65.240  0.00  0.00    +0.241 C 
ATOM      7  N   VAL A   6      16.331   7.425  65.599  0.00  0.00    -0.297 N 
ATOM      8  H   VAL A   6      16.464   6.653  66.284  0.00  0.00    +0.150 HD
ATOM      9  O   GLU A   5      14.835   8.704  64.463  0.00  0.00    -0.273 OA
BRANCH   6  10
ATOM     10  CA  GLU A   5      13.936   6.953  65.825  0.00  0.00    +0.149 C 
BRANCH  10  13
ATOM     11  C   GLY A   4      12.812   8.591  67.286  0.00  0.00    +0.243 C 
ATOM     12  O   GLY A   4      13.750   8.676  68.087  0.00  0.00    -0.273 OA
ATOM     13  N   GLU A   5      12.829   7.824  66.194  0.00  0.00    -0.297 N 
ATOM     14  H   GLU A   5      12.000   7.850  65.567  0.00  0.00    +0.150 HD
BRANCH  11  15
ATOM     15  CA  GLY A   4      11.534   9.399  67.495  0.00  0.00    +0.176 C 
BRANCH  15  18
ATOM     16  C   VAL A   3      10.688  10.155  69.666  0.00  0.00    +0.241 C 
ATOM     17  O   VAL A   3       9.808   9.311  69.684  0.00  0.00    -0.273 OA
ATOM     18  N   GLY A   4      11.569  10.263  68.681  0.00  0.00    -0.295 N 
ATOM     19  H   GLY A   4      12.312  10.987  68.751  0.00  0.00    +0.150 HD
BRANCH  16  20
ATOM     20  CA  VAL A   3      10.847  11.106  70.845  0.00  0.00    +0.149 C 
BRANCH  20  22
ATOM     21  C   LEU A   2       9.980  13.347  70.412  0.00  0.00    +0.241 C 
ATOM     22  N   VAL A   3       9.779  12.104  70.836  0.00  0.00    -0.297 N 
ATOM     23  H   VAL A   3       8.833  11.833  71.172  0.00  0.00    +0.150 HD
ATOM     24  O   LEU A   2      10.985  13.685  69.819  0.00  0.00    -0.273 OA
BRANCH  21  25
ATOM     25  CA  LEU A   2       8.871  14.364  70.702  0.00  0.00    +0.149 C 
BRANCH  25  28
ATOM     26  C   TYR A   1       8.893  15.267  72.977  0.00  0.00    +0.239 C 
ATOM     27  O   TYR A   1       8.093  14.442  73.386  0.00  0.00    -0.274 OA
ATOM     28  N   LEU A   2       9.336  15.298  71.723  0.00  0.00    -0.297 N 
ATOM     29  H   LEU A   2      10.041  16.016  71.460  0.00  0.00    +0.150 HD
BRANCH  26  30
ATOM     30  CA  TYR A   1       9.406  16.354  73.900  0.00  0.00    +0.149 C 
BRANCH  30  31
ATOM     31  N   TYR A   1       8.290  17.197  74.311  0.00  0.00    -0.238 NA
ATOM     32  H   TYR A   1       7.470  16.773  74.791  0.00  0.00    +0.142 HD
ENDBRANCH  30  31
BRANCH  30  33
ATOM     33  CB  TYR A   1      10.100  15.717  75.103  0.00  0.00    +0.053 C 
BRANCH  33  34
ATOM     34  CG  TYR A   1      10.574  16.670  76.184  0.00  0.00    -0.020 A 
ATOM     35  CD2 TYR A   1       9.686  17.224  77.100  0.00  0.00    -0.001 A 
ATOM     36  CE2 TYR A   1      10.132  18.071  78.121  0.00  0.00    +0.036 A 
ATOM     37  CZ  TYR A   1      11.472  18.340  78.239  0.00  0.00    +0.134 A 
ATOM     38  CE1 TYR A   1      12.372  17.784  77.363  0.00  0.00    +0.036 A 
ATOM     39  CD1 TYR A   1      11.919  16.950  76.340  0.00  0.00    -0.001 A 
BRANCH  37  40
ATOM     40  OH  TYR A   1      11.926  19.170  79.219  0.00  0.00    -0.506 OA
ATOM     41  HH  TYR A   1      12.911  19.248  79.154  0.00  0.00    +0.292 HD
ENDBRANCH  37  40
ENDBRANCH  33  34
ENDBRANCH  30  33
ENDBRANCH  26  30
ENDBRANCH  25  28
BRANCH  25  42
ATOM     42  CB  LEU A   2       8.494  15.114  69.422  0.00  0.00    +0.029 C 
BRANCH  42  43
ATOM     43  CG  LEU A   2       7.416  16.208  69.510  0.00  0.00    +0.002 C 
ATOM     44  CD2 LEU A   2       6.043  15.654  69.853  0.00  0.00    +0.000 C 
ATOM     45  CD1 LEU A   2       7.354  16.937  68.182  0.00  0.00    +0.000 C 
ENDBRANCH  42  43
ENDBRANCH  25  42
ENDBRANCH  21  25
ENDBRANCH  20  22
BRANCH  20  46
ATOM     46  CB  VAL A   3      10.820  10.258  72.125  0.00  0.00    +0.027 C 
ATOM     47  CG2 VAL A   3      10.824  11.148  73.365  0.00  0.00    +0.002 C 
ATOM     48  CG1 VAL A   3      11.982   9.265  72.111  0.00  0.00    +0.002 C 
ENDBRANCH  20  46
ENDBRANCH  16  20
ENDBRANCH  15  18
ENDBRANCH  11  15
ENDBRANCH  10  13
BRANCH  10  49
ATOM     49  CB  GLU A   5      13.432   5.952  64.780  0.00  0.00    +0.041 C 
BRANCH  49  50
ATOM     50  CG  GLU A   5      14.373   4.817  64.370  0.00  0.00    +0.116 C 
BRANCH  50  51
ATOM     51  CD  GLU A   5      13.715   3.872  63.355  0.00  0.00    +0.365 C 
ATOM     52  OE2 GLU A   5      14.336   2.854  62.988  0.00  0.00    -0.246 OA
ATOM     53  OE1 GLU A   5      12.579   4.131  62.897  0.00  0.00    -0.246 OA
ENDBRANCH  50  51
ENDBRANCH  49  50
ENDBRANCH  10  49
ENDBRANCH   6  10
ENDBRANCH   5   7
BRANCH   5  54
ATOM     54  CB  VAL A   6      18.817   7.842  65.843  0.00  0.00    +0.027 C 
ATOM     55  CG2 VAL A   6      18.623   7.916  67.359  0.00  0.00    +0.002 C 
ATOM     56  CG1 VAL A   6      19.880   8.851  65.409  0.00  0.00    +0.002 C 
ENDBRANCH   5  54
ENDBRANCH   1   5
BRANCH   3  57
ATOM     57  CA  TYR A   7      18.552   8.206  61.377  0.00  0.00    +0.153 C 
BRANCH  57  58
ATOM     58  C   TYR A   7      19.905   8.894  61.151  0.00  0.00    +0.241 C 
ATOM     59  O   TYR A   7      20.113  10.027  61.561  0.00  0.00    -0.273 OA
ATOM     60  N   THR A   8      20.819   8.184  60.497  0.00  0.00    -0.295 N 
ATOM     61  H   THR A   8      20.517   7.311  60.019  0.00  0.00    +0.150 HD
BRANCH  60  62
ATOM     62  CA  THR A   8      22.237   8.571  60.415  0.00  0.00    +0.176 C 
BRANCH  62  63
ATOM     63  C   THR A   8      22.721   8.887  58.991  0.00  0.00    +0.243 C 
ATOM     64  O   THR A   8      23.912   9.086  58.762  0.00  0.00    -0.273 OA
ATOM     65  N   GLY A   9      21.804   8.925  58.034  0.00  0.00    -0.295 N 
ATOM     66  H   GLY A   9      20.802   8.816  58.289  0.00  0.00    +0.150 HD
BRANCH  65  67
ATOM     67  CA  GLY A   9      22.168   9.117  56.620  0.00  0.00    +0.176 C 
BRANCH  67  68
ATOM     68  C   GLY A   9      22.339  10.564  56.232  0.00  0.00    +0.243 C 
ATOM     69  N   GLY A  10      21.914  11.474  57.094  0.00  0.00    -0.295 N 
ATOM     70  H   GLY A  10      21.520  11.162  58.005  0.00  0.00    +0.150 HD
ATOM     71  O   GLY A   9      22.837  10.856  55.162  0.00  0.00    -0.273 OA
BRANCH  69  72
ATOM     72  CA  GLY A  10      21.982  12.894  56.805  0.00  0.00    +0.176 C 
BRANCH  72  73
ATOM     73  C   GLY A  10      20.812  13.277  55.918  0.00  0.00    +0.243 C 
ATOM     74  O   GLY A  10      19.929  12.458  55.678  0.00  0.00    -0.273 OA
ATOM     75  N   GLU A  11      20.814  14.519  55.433  0.00  0.00    -0.297 N 
ATOM     76  H   GLU A  11      21.610  15.148  55.664  0.00  0.00    +0.150 HD
BRANCH  75  77
ATOM     77  CA  GLU A  11      19.744  15.022  54.595  0.00  0.00    +0.149 C 
BRANCH  77  78
ATOM     78  C   GLU A  11      19.957  14.545  53.171  0.00  0.00    +0.241 C 
ATOM     79  O   GLU A  11      21.080  14.470  52.695  0.00  0.00    -0.273 OA
ATOM     80  N   LEU A  12      18.872  14.208  52.485  0.00  0.00    -0.298 N 
ATOM     81  H   LEU A  12      17.936  14.294  52.931  0.00  0.00    +0.150 HD
BRANCH  80  82
ATOM     82  CA  LEU A  12      18.973  13.719  51.115  0.00  0.00    +0.137 C 
BRANCH  82  83
ATOM     83  C   LEU A  12      19.980  14.533  50.256  0.00  0.00    +0.227 C 
ATOM     84  O   LEU A  12      20.934  13.967  49.722  0.00  0.00    -0.286 OA
ENDBRANCH  82  83
BRANCH  82  85
ATOM     85  CB  LEU A  12      17.585  13.706  50.469  0.00  0.00    +0.028 C 
BRANCH  85  86
ATOM     86  CG  LEU A  12      17.501  13.341  48.983  0.00  0.00    +0.002 C 
ATOM     87  CD2 LEU A  12      18.077  11.943  48.732  0.00  0.00    +0.000 C 
ATOM     88  CD1 LEU A  12      16.055  13.434  48.515  0.00  0.00    +0.000 C 
ENDBRANCH  85  86
ENDBRANCH  82  85
ENDBRANCH  80  82
ENDBRANCH  77  78
BRANCH  77  89
ATOM     89  CB  GLU A  11      19.678  16.549  54.661  0.00  0.00    +0.041 C 
BRANCH  89  90
ATOM     90  CG  GLU A  11      19.205  17.076  56.001  0.00  0.00    +0.116 C 
BRANCH  90  91
ATOM     91  CD  GLU A  11      19.545  18.542  56.241  0.00  0.00    +0.365 C 
ATOM     92  OE2 GLU A  11      19.788  18.871  57.424  0.00  0.00    -0.246 OA
ATOM     93  OE1 GLU A  11      19.559  19.368  55.277  0.00  0.00    -0.246 OA
ENDBRANCH  90  91
ENDBRANCH  89  90
ENDBRANCH  77  89
ENDBRANCH  75  77
ENDBRANCH  72  73
ENDBRANCH  69  72
ENDBRANCH  67  68
ENDBRANCH  65  67
ENDBRANCH  62  63
BRANCH  62  94
ATOM     94  CB  THR A   8      23.106   7.415  60.932  0.00  0.00    +0.137 C 
ATOM     95  CG2 THR A   8      22.853   7.171  62.403  0.00  0.00    +0.034 C 
BRANCH  94  96
ATOM     96  OG1 THR A   8      22.795   6.226  60.189  0.00  0.00    -0.382 OA
ATOM     97  HG1 THR A   8      23.353   5.477  60.518  0.00  0.00    +0.210 HD
ENDBRANCH  94  96
ENDBRANCH  62  94
ENDBRANCH  60  62
ENDBRANCH  57  58
BRANCH  57  98
ATOM     98  CB  TYR A   7      17.525   8.594  60.300  0.00  0.00    +0.055 C 
BRANCH  98  99
ATOM     99  CG  TYR A   7      16.152   7.976  60.550  0.00  0.00    -0.020 A 
ATOM    100  CD2 TYR A   7      16.018   6.622  60.797  0.00  0.00    -0.001 A 
ATOM    101  CE2 TYR A   7      14.782   6.059  61.064  0.00  0.00    +0.036 A 
ATOM    102  CZ  TYR A   7      13.642   6.852  61.069  0.00  0.00    +0.134 A 
ATOM    103  CE1 TYR A   7      13.747   8.198  60.791  0.00  0.00    +0.036 A 
ATOM    104  CD1 TYR A   7      14.992   8.754  60.536  0.00  0.00    -0.001 A 
BRANCH 102 105
ATOM    105  OH  TYR A   7      12.403   6.281  61.325  0.00  0.00    -0.506 OA
ATOM    106  HH  TYR A   7      12.517   5.314  61.503  0.00  0.00    +0.292 HD
ENDBRANCH 102 105
ENDBRANCH  98  99
ENDBRANCH  57  98
ENDBRANCH   3  57
TORSDOF 44
REMARK  Name = ../refined-set-2016/3v5t/3v5t_pocket.pdb
REMARK  232 active torsions:
REMARK  status: ('A' for Active; 'I' for Inactive)
REMARK    1  A    between atoms: _1  and  _3
REMARK    2  A    between atoms: _3  and  _4
REMARK    3  A    between atoms: _3  and  _6
REMARK    4  A    between atoms: _6  and  _7
REMARK    5  A    between atoms: _7  and  _8
REMARK    6  A    between atoms: _8  and  _9
REMARK    7  A    between atoms: _18  and  _20
REMARK    8  A    between atoms: _20  and  _21
REMARK    9  A    between atoms: _20  and  _23
REMARK   10  A    between atoms: _26  and  _28
REMARK   11  A    between atoms: _28  and  _29
REMARK   12  A    between atoms: _28  and  _31
REMARK   13  A    between atoms: _31  and  _32
REMARK   14  A    between atoms: _35  and  _37
REMARK   15  A    between atoms: _37  and  _38
REMARK   16  A    between atoms: _40  and  _42
REMARK   17  A    between atoms: _42  and  _43
REMARK   18  A    between atoms: _42  and  _45
REMARK   19  A    between atoms: _45  and  _46
REMARK   20  A    between atoms: _46  and  _47
REMARK   21  A    between atoms: _47  and  _48
REMARK   22  A    between atoms: _48  and  _49
REMARK   23  A    between atoms: _53  and  _55
REMARK   24  A    between atoms: _55  and  _56
REMARK   25  A    between atoms: _58  and  _60
REMARK   26  A    between atoms: _60  and  _61
REMARK   27  A    between atoms: _60  and  _63
REMARK   28  A    between atoms: _63  and  _64
REMARK   29  A    between atoms: _66  and  _68
REMARK   30  A    between atoms: _68  and  _69
REMARK   31  A    between atoms: _71  and  _73
REMARK   32  A    between atoms: _73  and  _74
REMARK   33  A    between atoms: _73  and  _76
REMARK   34  A    between atoms: _76  and  _77
REMARK   35  A    between atoms: _77  and  _78
REMARK   36  A    between atoms: _81  and  _83
REMARK   37  A    between atoms: _83  and  _84
REMARK   38  A    between atoms: _83  and  _86
REMARK   39  A    between atoms: _89  and  _91
REMARK   40  A    between atoms: _91  and  _92
REMARK   41  A    between atoms: _91  and  _94
REMARK   42  A    between atoms: _94  and  _95
REMARK   43  A    between atoms: _98  and  _100
REMARK   44  A    between atoms: _100  and  _101
REMARK   45  A    between atoms: _100  and  _103
REMARK   46  A    between atoms: _103  and  _104
REMARK   47  A    between atoms: _107  and  _109
REMARK   48  A    between atoms: _109  and  _110
REMARK   49  A    between atoms: _109  and  _112
REMARK   50  A    between atoms: _114  and  _116
REMARK   51  A    between atoms: _116  and  _117
REMARK   52  A    between atoms: _120  and  _122
REMARK   53  A    between atoms: _122  and  _123
REMARK   54  A    between atoms: _122  and  _125
REMARK   55  A    between atoms: _128  and  _130
REMARK   56  A    between atoms: _130  and  _131
REMARK   57  A    between atoms: _130  and  _133
REMARK   58  A    between atoms: _133  and  _134
REMARK   59  A    between atoms: _134  and  _135
REMARK   60  A    between atoms: _135  and  _136
REMARK   61  A    between atoms: _136  and  _137
REMARK   62  A    between atoms: _141  and  _143
REMARK   63  A    between atoms: _143  and  _144
REMARK   64  A    between atoms: _143  and  _146
REMARK   65  A    between atoms: _149  and  _151
REMARK   66  A    between atoms: _151  and  _152
REMARK   67  A    between atoms: _151  and  _154
REMARK   68  A    between atoms: _154  and  _155
REMARK   69  A    between atoms: _158  and  _160
REMARK   70  A    between atoms: _160  and  _161
REMARK   71  A    between atoms: _160  and  _163
REMARK   72  A    between atoms: _163  and  _164
REMARK   73  A    between atoms: _164  and  _165
REMARK   74  A    between atoms: _168  and  _170
REMARK   75  A    between atoms: _170  and  _171
REMARK   76  A    between atoms: _170  and  _173
REMARK   77  A    between atoms: _176  and  _178
REMARK   78  A    between atoms: _178  and  _179
REMARK   79  A    between atoms: _178  and  _181
REMARK   80  A    between atoms: _181  and  _182
REMARK   81  A    between atoms: _185  and  _187
REMARK   82  A    between atoms: _187  and  _188
REMARK   83  A    between atoms: _187  and  _190
REMARK   84  A    between atoms: _190  and  _191
REMARK   85  A    between atoms: _191  and  _192
REMARK   86  A    between atoms: _194  and  _196
REMARK   87  A    between atoms: _196  and  _197
REMARK   88  A    between atoms: _196  and  _199
REMARK   89  A    between atoms: _199  and  _200
REMARK   90  A    between atoms: _200  and  _201
REMARK   91  A    between atoms: _201  and  _202
REMARK   92  A    between atoms: _202  and  _203
REMARK   93  A    between atoms: _207  and  _209
REMARK   94  A    between atoms: _209  and  _210
REMARK   95  A    between atoms: _209  and  _212
REMARK   96  A    between atoms: _212  and  _213
REMARK   97  A    between atoms: _216  and  _218
REMARK   98  A    between atoms: _218  and  _219
REMARK   99  A    between atoms: _218  and  _221
REMARK  100  A    between atoms: _221  and  _222
REMARK  101  A    between atoms: _227  and  _228
REMARK  102  A    between atoms: _230  and  _232
REMARK  103  A    between atoms: _232  and  _233
REMARK  104  A    between atoms: _232  and  _235
REMARK  105  A    between atoms: _235  and  _236
REMARK  106  A    between atoms: _236  and  _237
REMARK  107  A    between atoms: _240  and  _242
REMARK  108  A    between atoms: _242  and  _243
REMARK  109  A    between atoms: _242  and  _245
REMARK  110  A    between atoms: _245  and  _246
REMARK  111  A    between atoms: _252  and  _254
REMARK  112  A    between atoms: _254  and  _255
REMARK  113  A    between atoms: _254  and  _257
REMARK  114  A    between atoms: _257  and  _258
REMARK  115  A    between atoms: _263  and  _264
REMARK  116  A    between atoms: _266  and  _268
REMARK  117  A    between atoms: _268  and  _269
REMARK  118  A    between atoms: _268  and  _271
REMARK  119  A    between atoms: _271  and  _272
REMARK  120  A    between atoms: _275  and  _277
REMARK  121  A    between atoms: _277  and  _278
REMARK  122  A    between atoms: _277  and  _280
REMARK  123  A    between atoms: _283  and  _285
REMARK  124  A    between atoms: _285  and  _286
REMARK  125  A    between atoms: _288  and  _290
REMARK  126  A    between atoms: _290  and  _291
REMARK  127  A    between atoms: _290  and  _293
REMARK  128  A    between atoms: _293  and  _294
REMARK  129  A    between atoms: _294  and  _295
REMARK  130  A    between atoms: _298  and  _300
REMARK  131  A    between atoms: _300  and  _301
REMARK  132  A    between atoms: _300  and  _303
REMARK  133  A    between atoms: _306  and  _308
REMARK  134  A    between atoms: _308  and  _309
REMARK  135  A    between atoms: _308  and  _311
REMARK  136  A    between atoms: _311  and  _312
REMARK  137  A    between atoms: _317  and  _318
REMARK  138  A    between atoms: _320  and  _322
REMARK  139  A    between atoms: _322  and  _323
REMARK  140  A    between atoms: _322  and  _325
REMARK  141  A    between atoms: _325  and  _326
REMARK  142  A    between atoms: _329  and  _331
REMARK  143  A    between atoms: _331  and  _332
REMARK  144  A    between atoms: _334  and  _336
REMARK  145  A    between atoms: _336  and  _337
REMARK  146  A    between atoms: _339  and  _341
REMARK  147  A    between atoms: _341  and  _342
REMARK  148  A    between atoms: _341  and  _344
REMARK  149  A    between atoms: _344  and  _345
REMARK  150  A    between atoms: _345  and  _346
REMARK  151  A    between atoms: _349  and  _351
REMARK  152  A    between atoms: _351  and  _352
REMARK  153  A    between atoms: _351  and  _354
REMARK  154  A    between atoms: _354  and  _355
REMARK  155  A    between atoms: _358  and  _360
REMARK  156  A    between atoms: _360  and  _361
REMARK  157  A    between atoms: _360  and  _363
REMARK  158  A    between atoms: _363  and  _364
REMARK  159  A    between atoms: _367  and  _369
REMARK  160  A    between atoms: _369  and  _370
REMARK  161  A    between atoms: _369  and  _372
REMARK  162  A    between atoms: _372  and  _373
REMARK  163  A    between atoms: _373  and  _374
REMARK  164  A    between atoms: _377  and  _379
REMARK  165  A    between atoms: _379  and  _380
REMARK  166  A    between atoms: _379  and  _382
REMARK  167  A    between atoms: _382  and  _383
REMARK  168  A    between atoms: _388  and  _390
REMARK  169  A    between atoms: _390  and  _391
REMARK  170  A    between atoms: _390  and  _393
REMARK  171  A    between atoms: _393  and  _394
REMARK  172  A    between atoms: _397  and  _399
REMARK  173  A    between atoms: _399  and  _400
REMARK  174  A    between atoms: _399  and  _402
REMARK  175  A    between atoms: _402  and  _403
REMARK  176  A    between atoms: _406  and  _408
REMARK  177  A    between atoms: _408  and  _409
REMARK  178  A    between atoms: _408  and  _411
REMARK  179  A    between atoms: _411  and  _412
REMARK  180  A    between atoms: _415  and  _417
REMARK  181  A    between atoms: _417  and  _418
REMARK  182  A    between atoms: _417  and  _420
REMARK  183  A    between atoms: _420  and  _421
REMARK  184  A    between atoms: _421  and  _422
REMARK  185  A    between atoms: _425  and  _427
REMARK  186  A    between atoms: _427  and  _428
REMARK  187  A    between atoms: _427  and  _430
REMARK  188  A    between atoms: _430  and  _431
REMARK  189  A    between atoms: _431  and  _432
REMARK  190  A    between atoms: _432  and  _433
REMARK  191  A    between atoms: _442  and  _444
REMARK  192  A    between atoms: _444  and  _445
REMARK  193  A    between atoms: _444  and  _447
REMARK  194  A    between atoms: _447  and  _448
REMARK  195  A    between atoms: _451  and  _453
REMARK  196  A    between atoms: _453  and  _454
REMARK  197  A    between atoms: _453  and  _456
REMARK  198  A    between atoms: _456  and  _457
REMARK  199  A    between atoms: _460  and  _462
REMARK  200  A    between atoms: _462  and  _463
REMARK  201  A    between atoms: _462  and  _465
REMARK  202  A    between atoms: _465  and  _466
REMARK  203  A    between atoms: _469  and  _471
REMARK  204  A    between atoms: _471  and  _472
REMARK  205  A    between atoms: _471  and  _474
REMARK  206  A    between atoms: _474  and  _475
REMARK  207  A    between atoms: _481  and  _483
REMARK  208  A    between atoms: _483  and  _484
REMARK  209  A    between atoms: _486  and  _488
REMARK  210  A    between atoms: _488  and  _489
REMARK  211  A    between atoms: _488  and  _491
REMARK  212  A    between atoms: _491  and  _492
REMARK  213  A    between atoms: _495  and  _497
REMARK  214  A    between atoms: _497  and  _498
REMARK  215  A    between atoms: _497  and  _500
REMARK  216  A    between atoms: _500  and  _501
REMARK  217  A    between atoms: _503  and  _505
REMARK  218  A    between atoms: _505  and  _506
REMARK  219  A    between atoms: _505  and  _508
REMARK  220  A    between atoms: _508  and  _509
REMARK  221  A    between atoms: _515  and  _517
REMARK  222  A    between atoms: _517  and  _518
REMARK  223  A    between atoms: _517  and  _520
REMARK  224  A    between atoms: _520  and  _521
REMARK  225  A    between atoms: _521  and  _522
REMARK  226  A    between atoms: _522  and  _523
REMARK  227  A    between atoms: _523  and  _524
REMARK  228  A    between atoms: _528  and  _530
REMARK  229  A    between atoms: _530  and  _531
REMARK  230  A    between atoms: _530  and  _533
REMARK  231  A    between atoms: _533  and  _534
REMARK  232  A    between atoms: _534  and  _535
REMARK                            x       y       z     vdW  Elec       q    Type
REMARK                         _______ _______ _______ _____ _____    ______ ____
ROOT
ATOM      1  CA  ASP A   1      23.865  16.521  51.175  0.00  0.00    +0.144 C 
ENDROOT
BRANCH   1   2
ATOM      2  N   ASP A   1      22.447  16.585  50.773  0.00  0.00    -0.239 NA
ATOM      3  H   ASP A   1      21.716  16.537  51.511  0.00  0.00    +0.142 HD
ENDBRANCH   1   2
BRANCH   1   4
ATOM      4  C   ASP A   1      24.532  15.227  50.706  0.00  0.00    +0.225 C 
ATOM      5  O   ASP A   1      25.761  15.149  50.665  0.00  0.00    -0.287 OA
ENDBRANCH   1   4
BRANCH   1   6
ATOM      6  CB  ASP A   1      24.035  16.619  52.704  0.00  0.00    +0.139 C 
BRANCH   6   7
ATOM      7  CG  ASP A   1      23.728  18.006  53.255  0.00  0.00    +0.367 C 
ATOM      8  OD2 ASP A   1      23.446  18.114  54.473  0.00  0.00    -0.246 OA
ATOM      9  OD1 ASP A   1      23.787  19.011  52.501  0.00  0.00    -0.246 OA
ENDBRANCH   6   7
ENDBRANCH   1   6
TORSDOF 4
REMARK  Name = ../refined-set-2016/3v5t/3v5t_pocket.pdb
REMARK  232 active torsions:
REMARK  status: ('A' for Active; 'I' for Inactive)
REMARK    1  A    between atoms: _1  and  _3
REMARK    2  A    between atoms: _3  and  _4
REMARK    3  A    between atoms: _3  and  _6
REMARK    4  A    between atoms: _6  and  _7
REMARK    5  A    between atoms: _7  and  _8
REMARK    6  A    between atoms: _8  and  _9
REMARK    7  A    between atoms: _18  and  _20
REMARK    8  A    between atoms: _20  and  _21
REMARK    9  A    between atoms: _20  and  _23
REMARK   10  A    between atoms: _26  and  _28
REMARK   11  A    between atoms: _28  and  _29
REMARK   12  A    between atoms: _28  and  _31
REMARK   13  A    between atoms: _31  and  _32
REMARK   14  A    between atoms: _35  and  _37
REMARK   15  A    between atoms: _37  and  _38
REMARK   16  A    between atoms: _40  and  _42
REMARK   17  A    between atoms: _42  and  _43
REMARK   18  A    between atoms: _42  and  _45
REMARK   19  A    between atoms: _45  and  _46
REMARK   20  A    between atoms: _46  and  _47
REMARK   21  A    between atoms: _47  and  _48
REMARK   22  A    between atoms: _48  and  _49
REMARK   23  A    between atoms: _53  and  _55
REMARK   24  A    between atoms: _55  and  _56
REMARK   25  A    between atoms: _58  and  _60
REMARK   26  A    between atoms: _60  and  _61
REMARK   27  A    between atoms: _60  and  _63
REMARK   28  A    between atoms: _63  and  _64
REMARK   29  A    between atoms: _66  and  _68
REMARK   30  A    between atoms: _68  and  _69
REMARK   31  A    between atoms: _71  and  _73
REMARK   32  A    between atoms: _73  and  _74
REMARK   33  A    between atoms: _73  and  _76
REMARK   34  A    between atoms: _76  and  _77
REMARK   35  A    between atoms: _77  and  _78
REMARK   36  A    between atoms: _81  and  _83
REMARK   37  A    between atoms: _83  and  _84
REMARK   38  A    between atoms: _83  and  _86
REMARK   39  A    between atoms: _89  and  _91
REMARK   40  A    between atoms: _91  and  _92
REMARK   41  A    between atoms: _91  and  _94
REMARK   42  A    between atoms: _94  and  _95
REMARK   43  A    between atoms: _98  and  _100
REMARK   44  A    between atoms: _100  and  _101
REMARK   45  A    between atoms: _100  and  _103
REMARK   46  A    between atoms: _103  and  _104
REMARK   47  A    between atoms: _107  and  _109
REMARK   48  A    between atoms: _109  and  _110
REMARK   49  A    between atoms: _109  and  _112
REMARK   50  A    between atoms: _114  and  _116
REMARK   51  A    between atoms: _116  and  _117
REMARK   52  A    between atoms: _120  and  _122
REMARK   53  A    between atoms: _122  and  _123
REMARK   54  A    between atoms: _122  and  _125
REMARK   55  A    between atoms: _128  and  _130
REMARK   56  A    between atoms: _130  and  _131
REMARK   57  A    between atoms: _130  and  _133
REMARK   58  A    between atoms: _133  and  _134
REMARK   59  A    between atoms: _134  and  _135
REMARK   60  A    between atoms: _135  and  _136
REMARK   61  A    between atoms: _136  and  _137
REMARK   62  A    between atoms: _141  and  _143
REMARK   63  A    between atoms: _143  and  _144
REMARK   64  A    between atoms: _143  and  _146
REMARK   65  A    between atoms: _149  and  _151
REMARK   66  A    between atoms: _151  and  _152
REMARK   67  A    between atoms: _151  and  _154
REMARK   68  A    between atoms: _154  and  _155
REMARK   69  A    between atoms: _158  and  _160
REMARK   70  A    between atoms: _160  and  _161
REMARK   71  A    between atoms: _160  and  _163
REMARK   72  A    between atoms: _163  and  _164
REMARK   73  A    between atoms: _164  and  _165
REMARK   74  A    between atoms: _168  and  _170
REMARK   75  A    between atoms: _170  and  _171
REMARK   76  A    between atoms: _170  and  _173
REMARK   77  A    between atoms: _176  and  _178
REMARK   78  A    between atoms: _178  and  _179
REMARK   79  A    between atoms: _178  and  _181
REMARK   80  A    between atoms: _181  and  _182
REMARK   81  A    between atoms: _185  and  _187
REMARK   82  A    between atoms: _187  and  _188
REMARK   83  A    between atoms: _187  and  _190
REMARK   84  A    between atoms: _190  and  _191
REMARK   85  A    between atoms: _191  and  _192
REMARK   86  A    between atoms: _194  and  _196
REMARK   87  A    between atoms: _196  and  _197
REMARK   88  A    between atoms: _196  and  _199
REMARK   89  A    between atoms: _199  and  _200
REMARK   90  A    between atoms: _200  and  _201
REMARK   91  A    between atoms: _201  and  _202
REMARK   92  A    between atoms: _202  and  _203
REMARK   93  A    between atoms: _207  and  _209
REMARK   94  A    between atoms: _209  and  _210
REMARK   95  A    between atoms: _209  and  _212
REMARK   96  A    between atoms: _212  and  _213
REMARK   97  A    between atoms: _216  and  _218
REMARK   98  A    between atoms: _218  and  _219
REMARK   99  A    between atoms: _218  and  _221
REMARK  100  A    between atoms: _221  and  _222
REMARK  101  A    between atoms: _227  and  _228
REMARK  102  A    between atoms: _230  and  _232
REMARK  103  A    between atoms: _232  and  _233
REMARK  104  A    between atoms: _232  and  _235
REMARK  105  A    between atoms: _235  and  _236
REMARK  106  A    between atoms: _236  and  _237
REMARK  107  A    between atoms: _240  and  _242
REMARK  108  A    between atoms: _242  and  _243
REMARK  109  A    between atoms: _242  and  _245
REMARK  110  A    between atoms: _245  and  _246
REMARK  111  A    between atoms: _252  and  _254
REMARK  112  A    between atoms: _254  and  _255
REMARK  113  A    between atoms: _254  and  _257
REMARK  114  A    between atoms: _257  and  _258
REMARK  115  A    between atoms: _263  and  _264
REMARK  116  A    between atoms: _266  and  _268
REMARK  117  A    between atoms: _268  and  _269
REMARK  118  A    between atoms: _268  and  _271
REMARK  119  A    between atoms: _271  and  _272
REMARK  120  A    between atoms: _275  and  _277
REMARK  121  A    between atoms: _277  and  _278
REMARK  122  A    between atoms: _277  and  _280
REMARK  123  A    between atoms: _283  and  _285
REMARK  124  A    between atoms: _285  and  _286
REMARK  125  A    between atoms: _288  and  _290
REMARK  126  A    between atoms: _290  and  _291
REMARK  127  A    between atoms: _290  and  _293
REMARK  128  A    between atoms: _293  and  _294
REMARK  129  A    between atoms: _294  and  _295
REMARK  130  A    between atoms: _298  and  _300
REMARK  131  A    between atoms: _300  and  _301
REMARK  132  A    between atoms: _300  and  _303
REMARK  133  A    between atoms: _306  and  _308
REMARK  134  A    between atoms: _308  and  _309
REMARK  135  A    between atoms: _308  and  _311
REMARK  136  A    between atoms: _311  and  _312
REMARK  137  A    between atoms: _317  and  _318
REMARK  138  A    between atoms: _320  and  _322
REMARK  139  A    between atoms: _322  and  _323
REMARK  140  A    between atoms: _322  and  _325
REMARK  141  A    between atoms: _325  and  _326
REMARK  142  A    between atoms: _329  and  _331
REMARK  143  A    between atoms: _331  and  _332
REMARK  144  A    between atoms: _334  and  _336
REMARK  145  A    between atoms: _336  and  _337
REMARK  146  A    between atoms: _339  and  _341
REMARK  147  A    between atoms: _341  and  _342
REMARK  148  A    between atoms: _341  and  _344
REMARK  149  A    between atoms: _344  and  _345
REMARK  150  A    between atoms: _345  and  _346
REMARK  151  A    between atoms: _349  and  _351
REMARK  152  A    between atoms: _351  and  _352
REMARK  153  A    between atoms: _351  and  _354
REMARK  154  A    between atoms: _354  and  _355
REMARK  155  A    between atoms: _358  and  _360
REMARK  156  A    between atoms: _360  and  _361
REMARK  157  A    between atoms: _360  and  _363
REMARK  158  A    between atoms: _363  and  _364
REMARK  159  A    between atoms: _367  and  _369
REMARK  160  A    between atoms: _369  and  _370
REMARK  161  A    between atoms: _369  and  _372
REMARK  162  A    between atoms: _372  and  _373
REMARK  163  A    between atoms: _373  and  _374
REMARK  164  A    between atoms: _377  and  _379
REMARK  165  A    between atoms: _379  and  _380
REMARK  166  A    between atoms: _379  and  _382
REMARK  167  A    between atoms: _382  and  _383
REMARK  168  A    between atoms: _388  and  _390
REMARK  169  A    between atoms: _390  and  _391
REMARK  170  A    between atoms: _390  and  _393
REMARK  171  A    between atoms: _393  and  _394
REMARK  172  A    between atoms: _397  and  _399
REMARK  173  A    between atoms: _399  and  _400
REMARK  174  A    between atoms: _399  and  _402
REMARK  175  A    between atoms: _402  and  _403
REMARK  176  A    between atoms: _406  and  _408
REMARK  177  A    between atoms: _408  and  _409
REMARK  178  A    between atoms: _408  and  _411
REMARK  179  A    between atoms: _411  and  _412
REMARK  180  A    between atoms: _415  and  _417
REMARK  181  A    between atoms: _417  and  _418
REMARK  182  A    between atoms: _417  and  _420
REMARK  183  A    between atoms: _420  and  _421
REMARK  184  A    between atoms: _421  and  _422
REMARK  185  A    between atoms: _425  and  _427
REMARK  186  A    between atoms: _427  and  _428
REMARK  187  A    between atoms: _427  and  _430
REMARK  188  A    between atoms: _430  and  _431
REMARK  189  A    between atoms: _431  and  _432
REMARK  190  A    between atoms: _432  and  _433
REMARK  191  A    between atoms: _442  and  _444
REMARK  192  A    between atoms: _444  and  _445
REMARK  193  A    between atoms: _444  and  _447
REMARK  194  A    between atoms: _447  and  _448
REMARK  195  A    between atoms: _451  and  _453
REMARK  196  A    between atoms: _453  and  _454
REMARK  197  A    between atoms: _453  and  _456
REMARK  198  A    between atoms: _456  and  _457
REMARK  199  A    between atoms: _460  and  _462
REMARK  200  A    between atoms: _462  and  _463
REMARK  201  A    between atoms: _462  and  _465
REMARK  202  A    between atoms: _465  and  _466
REMARK  203  A    between atoms: _469  and  _471
REMARK  204  A    between atoms: _471  and  _472
REMARK  205  A    between atoms: _471  and  _474
REMARK  206  A    between atoms: _474  and  _475
REMARK  207  A    between atoms: _481  and  _483
REMARK  208  A    between atoms: _483  and  _484
REMARK  209  A    between atoms: _486  and  _488
REMARK  210  A    between atoms: _488  and  _489
REMARK  211  A    between atoms: _488  and  _491
REMARK  212  A    between atoms: _491  and  _492
REMARK  213  A    between atoms: _495  and  _497
REMARK  214  A    between atoms: _497  and  _498
REMARK  215  A    between atoms: _497  and  _500
REMARK  216  A    between atoms: _500  and  _501
REMARK  217  A    between atoms: _503  and  _505
REMARK  218  A    between atoms: _505  and  _506
REMARK  219  A    between atoms: _505  and  _508
REMARK  220  A    between atoms: _508  and  _509
REMARK  221  A    between atoms: _515  and  _517
REMARK  222  A    between atoms: _517  and  _518
REMARK  223  A    between atoms: _517  and  _520
REMARK  224  A    between atoms: _520  and  _521
REMARK  225  A    between atoms: _521  and  _522
REMARK  226  A    between atoms: _522  and  _523
REMARK  227  A    between atoms: _523  and  _524
REMARK  228  A    between atoms: _528  and  _530
REMARK  229  A    between atoms: _530  and  _531
REMARK  230  A    between atoms: _530  and  _533
REMARK  231  A    between atoms: _533  and  _534
REMARK  232  A    between atoms: _534  and  _535
REMARK                            x       y       z     vdW  Elec       q    Type
REMARK                         _______ _______ _______ _____ _____    ______ ____
ROOT
ATOM      1  C   LEU A   3      15.329  13.678  54.282  0.00  0.00    +0.241 C 
ATOM      2  N   LEU A   4      15.323  12.790  55.285  0.00  0.00    -0.297 N 
ATOM      3  H   LEU A   4      14.410  12.522  55.705  0.00  0.00    +0.150 HD
ATOM      4  O   LEU A   3      16.364  14.114  53.750  0.00  0.00    -0.273 OA
ENDROOT
BRANCH   2   5
ATOM      5  CA  LEU A   4      16.553  12.175  55.822  0.00  0.00    +0.149 C 
BRANCH   5   6
ATOM      6  C   LEU A   4      16.802  10.799  55.203  0.00  0.00    +0.241 C 
ATOM      7  N   LEU A   5      18.059  10.392  55.125  0.00  0.00    -0.297 N 
ATOM      8  H   LEU A   5      18.835  11.042  55.365  0.00  0.00    +0.150 HD
ATOM      9  O   LEU A   4      15.871  10.102  54.805  0.00  0.00    -0.273 OA
BRANCH   7  10
ATOM     10  CA  LEU A   5      18.350   9.027  54.700  0.00  0.00    +0.149 C 
BRANCH  10  11
ATOM     11  C   LEU A   5      18.523   8.175  55.955  0.00  0.00    +0.241 C 
ATOM     12  O   LEU A   5      19.115   8.601  56.938  0.00  0.00    -0.273 OA
ATOM     13  N   GLU A   6      17.977   6.976  55.914  0.00  0.00    -0.298 N 
ATOM     14  H   GLU A   6      17.606   6.624  55.008  0.00  0.00    +0.150 HD
BRANCH  13  15
ATOM     15  CA  GLU A   6      17.875   6.126  57.096  0.00  0.00    +0.137 C 
BRANCH  15  16
ATOM     16  C   GLU A   6      19.235   5.738  57.673  0.00  0.00    +0.227 C 
ATOM     17  O   GLU A   6      19.400   5.620  58.897  0.00  0.00    -0.286 OA
ENDBRANCH  15  16
BRANCH  15  18
ATOM     18  CB  GLU A   6      17.090   4.875  56.738  0.00  0.00    +0.039 C 
BRANCH  18  19
ATOM     19  CG  GLU A   6      16.375   4.248  57.901  0.00  0.00    +0.116 C 
BRANCH  19  20
ATOM     20  CD  GLU A   6      15.510   3.109  57.447  0.00  0.00    +0.365 C 
ATOM     21  OE2 GLU A   6      14.285   3.280  57.417  0.00  0.00    -0.246 OA
ATOM     22  OE1 GLU A   6      16.062   2.043  57.117  0.00  0.00    -0.246 OA
ENDBRANCH  19  20
ENDBRANCH  18  19
ENDBRANCH  15  18
ENDBRANCH  13  15
ENDBRANCH  10  11
BRANCH  10  23
ATOM     23  CB  LEU A   5      19.566   8.979  53.777  0.00  0.00    +0.029 C 
BRANCH  23  24
ATOM     24  CG  LEU A   5      19.310   9.550  52.367  0.00  0.00    +0.002 C 
ATOM     25  CD2 LEU A   5      20.626   9.913  51.711  0.00  0.00    +0.000 C 
ATOM     26  CD1 LEU A   5      18.527   8.592  51.471  0.00  0.00    +0.000 C 
ENDBRANCH  23  24
ENDBRANCH  10  23
ENDBRANCH   7  10
ENDBRANCH   5   6
BRANCH   5  27
ATOM     27  CB  LEU A   4      16.459  11.974  57.330  0.00  0.00    +0.029 C 
BRANCH  27  28
ATOM     28  CG  LEU A   4      16.071  13.152  58.206  0.00  0.00    +0.002 C 
ATOM     29  CD2 LEU A   4      16.129  12.683  59.644  0.00  0.00    +0.000 C 
ATOM     30  CD1 LEU A   4      16.955  14.376  57.971  0.00  0.00    +0.000 C 
ENDBRANCH  27  28
ENDBRANCH   5  27
ENDBRANCH   2   5
BRANCH   1  31
ATOM     31  CA  LEU A   3      13.978  14.156  53.792  0.00  0.00    +0.149 C 
BRANCH  31  34
ATOM     32  C   ASN A   2      12.771  15.710  55.274  0.00  0.00    +0.241 C 
ATOM     33  O   ASN A   2      12.022  14.825  55.718  0.00  0.00    -0.273 OA
ATOM     34  N   LEU A   3      13.675  15.485  54.318  0.00  0.00    -0.297 N 
ATOM     35  H   LEU A   3      14.191  16.299  53.927  0.00  0.00    +0.150 HD
BRANCH  32  36
ATOM     36  CA  ASN A   2      12.686  17.143  55.835  0.00  0.00    +0.158 C 
BRANCH  36  39
ATOM     37  C   GLU A   1      14.862  18.286  55.620  0.00  0.00    +0.238 C 
ATOM     38  O   GLU A   1      15.279  17.843  56.672  0.00  0.00    -0.274 OA
ATOM     39  N   ASN A   2      13.611  18.091  55.195  0.00  0.00    -0.297 N 
ATOM     40  H   ASN A   2      13.275  18.634  54.374  0.00  0.00    +0.150 HD
BRANCH  37  41
ATOM     41  CA  GLU A   1      15.787  19.122  54.738  0.00  0.00    +0.145 C 
BRANCH  41  42
ATOM     42  N   GLU A   1      15.170  19.377  53.434  0.00  0.00    -0.238 NA
ATOM     43  H   GLU A   1      14.745  20.304  53.228  0.00  0.00    +0.142 HD
ENDBRANCH  41  42
BRANCH  41  44
ATOM     44  CB  GLU A   1      16.203  20.424  55.433  0.00  0.00    +0.038 C 
BRANCH  44  45
ATOM     45  CG  GLU A   1      15.077  21.206  56.087  0.00  0.00    +0.116 C 
BRANCH  45  46
ATOM     46  CD  GLU A   1      15.553  22.492  56.740  0.00  0.00    +0.365 C 
ATOM     47  OE2 GLU A   1      15.309  22.655  57.959  0.00  0.00    -0.246 OA
ATOM     48  OE1 GLU A   1      16.157  23.342  56.037  0.00  0.00    -0.246 OA
ENDBRANCH  45  46
ENDBRANCH  44  45
ENDBRANCH  41  44
ENDBRANCH  37  41
ENDBRANCH  36  39
BRANCH  36  49
ATOM     49  CB  ASN A   2      11.237  17.627  55.719  0.00  0.00    +0.114 C 
BRANCH  49  50
ATOM     50  CG  ASN A   2      10.921  18.796  56.628  0.00  0.00    +0.222 C 
ATOM     51  OD1 ASN A   2      11.377  18.871  57.777  0.00  0.00    -0.275 OA
ATOM     52  ND2 ASN A   2      10.089  19.699  56.135  0.00  0.00    -0.329 N 
ATOM     53 HD21 ASN A   2       9.795  20.509  56.718  0.00  0.00    +0.145 HD
ATOM     54 HD22 ASN A   2       9.729  19.599  55.165  0.00  0.00    +0.145 HD
ENDBRANCH  49  50
ENDBRANCH  36  49
ENDBRANCH  32  36
ENDBRANCH  31  34
BRANCH  31  55
ATOM     55  CB  LEU A   3      14.013  14.188  52.247  0.00  0.00    +0.029 C 
BRANCH  55  56
ATOM     56  CG  LEU A   3      12.794  14.816  51.594  0.00  0.00    +0.002 C 
ATOM     57  CD2 LEU A   3      11.555  14.116  52.116  0.00  0.00    +0.000 C 
ATOM     58  CD1 LEU A   3      12.858  14.760  50.061  0.00  0.00    +0.000 C 
ENDBRANCH  55  56
ENDBRANCH  31  55
ENDBRANCH   1  31
TORSDOF 26
REMARK  Name = ../refined-set-2016/3v5t/3v5t_pocket.pdb
REMARK  232 active torsions:
REMARK  status: ('A' for Active; 'I' for Inactive)
REMARK    1  A    between atoms: _1  and  _3
REMARK    2  A    between atoms: _3  and  _4
REMARK    3  A    between atoms: _3  and  _6
REMARK    4  A    between atoms: _6  and  _7
REMARK    5  A    between atoms: _7  and  _8
REMARK    6  A    between atoms: _8  and  _9
REMARK    7  A    between atoms: _18  and  _20
REMARK    8  A    between atoms: _20  and  _21
REMARK    9  A    between atoms: _20  and  _23
REMARK   10  A    between atoms: _26  and  _28
REMARK   11  A    between atoms: _28  and  _29
REMARK   12  A    between atoms: _28  and  _31
REMARK   13  A    between atoms: _31  and  _32
REMARK   14  A    between atoms: _35  and  _37
REMARK   15  A    between atoms: _37  and  _38
REMARK   16  A    between atoms: _40  and  _42
REMARK   17  A    between atoms: _42  and  _43
REMARK   18  A    between atoms: _42  and  _45
REMARK   19  A    between atoms: _45  and  _46
REMARK   20  A    between atoms: _46  and  _47
REMARK   21  A    between atoms: _47  and  _48
REMARK   22  A    between atoms: _48  and  _49
REMARK   23  A    between atoms: _53  and  _55
REMARK   24  A    between atoms: _55  and  _56
REMARK   25  A    between atoms: _58  and  _60
REMARK   26  A    between atoms: _60  and  _61
REMARK   27  A    between atoms: _60  and  _63
REMARK   28  A    between atoms: _63  and  _64
REMARK   29  A    between atoms: _66  and  _68
REMARK   30  A    between atoms: _68  and  _69
REMARK   31  A    between atoms: _71  and  _73
REMARK   32  A    between atoms: _73  and  _74
REMARK   33  A    between atoms: _73  and  _76
REMARK   34  A    between atoms: _76  and  _77
REMARK   35  A    between atoms: _77  and  _78
REMARK   36  A    between atoms: _81  and  _83
REMARK   37  A    between atoms: _83  and  _84
REMARK   38  A    between atoms: _83  and  _86
REMARK   39  A    between atoms: _89  and  _91
REMARK   40  A    between atoms: _91  and  _92
REMARK   41  A    between atoms: _91  and  _94
REMARK   42  A    between atoms: _94  and  _95
REMARK   43  A    between atoms: _98  and  _100
REMARK   44  A    between atoms: _100  and  _101
REMARK   45  A    between atoms: _100  and  _103
REMARK   46  A    between atoms: _103  and  _104
REMARK   47  A    between atoms: _107  and  _109
REMARK   48  A    between atoms: _109  and  _110
REMARK   49  A    between atoms: _109  and  _112
REMARK   50  A    between atoms: _114  and  _116
REMARK   51  A    between atoms: _116  and  _117
REMARK   52  A    between atoms: _120  and  _122
REMARK   53  A    between atoms: _122  and  _123
REMARK   54  A    between atoms: _122  and  _125
REMARK   55  A    between atoms: _128  and  _130
REMARK   56  A    between atoms: _130  and  _131
REMARK   57  A    between atoms: _130  and  _133
REMARK   58  A    between atoms: _133  and  _134
REMARK   59  A    between atoms: _134  and  _135
REMARK   60  A    between atoms: _135  and  _136
REMARK   61  A    between atoms: _136  and  _137
REMARK   62  A    between atoms: _141  and  _143
REMARK   63  A    between atoms: _143  and  _144
REMARK   64  A    between atoms: _143  and  _146
REMARK   65  A    between atoms: _149  and  _151
REMARK   66  A    between atoms: _151  and  _152
REMARK   67  A    between atoms: _151  and  _154
REMARK   68  A    between atoms: _154  and  _155
REMARK   69  A    between atoms: _158  and  _160
REMARK   70  A    between atoms: _160  and  _161
REMARK   71  A    between atoms: _160  and  _163
REMARK   72  A    between atoms: _163  and  _164
REMARK   73  A    between atoms: _164  and  _165
REMARK   74  A    between atoms: _168  and  _170
REMARK   75  A    between atoms: _170  and  _171
REMARK   76  A    between atoms: _170  and  _173
REMARK   77  A    between atoms: _176  and  _178
REMARK   78  A    between atoms: _178  and  _179
REMARK   79  A    between atoms: _178  and  _181
REMARK   80  A    between atoms: _181  and  _182
REMARK   81  A    between atoms: _185  and  _187
REMARK   82  A    between atoms: _187  and  _188
REMARK   83  A    between atoms: _187  and  _190
REMARK   84  A    between atoms: _190  and  _191
REMARK   85  A    between atoms: _191  and  _192
REMARK   86  A    between atoms: _194  and  _196
REMARK   87  A    between atoms: _196  and  _197
REMARK   88  A    between atoms: _196  and  _199
REMARK   89  A    between atoms: _199  and  _200
REMARK   90  A    between atoms: _200  and  _201
REMARK   91  A    between atoms: _201  and  _202
REMARK   92  A    between atoms: _202  and  _203
REMARK   93  A    between atoms: _207  and  _209
REMARK   94  A    between atoms: _209  and  _210
REMARK   95  A    between atoms: _209  and  _212
REMARK   96  A    between atoms: _212  and  _213
REMARK   97  A    between atoms: _216  and  _218
REMARK   98  A    between atoms: _218  and  _219
REMARK   99  A    between atoms: _218  and  _221
REMARK  100  A    between atoms: _221  and  _222
REMARK  101  A    between atoms: _227  and  _228
REMARK  102  A    between atoms: _230  and  _232
REMARK  103  A    between atoms: _232  and  _233
REMARK  104  A    between atoms: _232  and  _235
REMARK  105  A    between atoms: _235  and  _236
REMARK  106  A    between atoms: _236  and  _237
REMARK  107  A    between atoms: _240  and  _242
REMARK  108  A    between atoms: _242  and  _243
REMARK  109  A    between atoms: _242  and  _245
REMARK  110  A    between atoms: _245  and  _246
REMARK  111  A    between atoms: _252  and  _254
REMARK  112  A    between atoms: _254  and  _255
REMARK  113  A    between atoms: _254  and  _257
REMARK  114  A    between atoms: _257  and  _258
REMARK  115  A    between atoms: _263  and  _264
REMARK  116  A    between atoms: _266  and  _268
REMARK  117  A    between atoms: _268  and  _269
REMARK  118  A    between atoms: _268  and  _271
REMARK  119  A    between atoms: _271  and  _272
REMARK  120  A    between atoms: _275  and  _277
REMARK  121  A    between atoms: _277  and  _278
REMARK  122  A    between atoms: _277  and  _280
REMARK  123  A    between atoms: _283  and  _285
REMARK  124  A    between atoms: _285  and  _286
REMARK  125  A    between atoms: _288  and  _290
REMARK  126  A    between atoms: _290  and  _291
REMARK  127  A    between atoms: _290  and  _293
REMARK  128  A    between atoms: _293  and  _294
REMARK  129  A    between atoms: _294  and  _295
REMARK  130  A    between atoms: _298  and  _300
REMARK  131  A    between atoms: _300  and  _301
REMARK  132  A    between atoms: _300  and  _303
REMARK  133  A    between atoms: _306  and  _308
REMARK  134  A    between atoms: _308  and  _309
REMARK  135  A    between atoms: _308  and  _311
REMARK  136  A    between atoms: _311  and  _312
REMARK  137  A    between atoms: _317  and  _318
REMARK  138  A    between atoms: _320  and  _322
REMARK  139  A    between atoms: _322  and  _323
REMARK  140  A    between atoms: _322  and  _325
REMARK  141  A    between atoms: _325  and  _326
REMARK  142  A    between atoms: _329  and  _331
REMARK  143  A    between atoms: _331  and  _332
REMARK  144  A    between atoms: _334  and  _336
REMARK  145  A    between atoms: _336  and  _337
REMARK  146  A    between atoms: _339  and  _341
REMARK  147  A    between atoms: _341  and  _342
REMARK  148  A    between atoms: _341  and  _344
REMARK  149  A    between atoms: _344  and  _345
REMARK  150  A    between atoms: _345  and  _346
REMARK  151  A    between atoms: _349  and  _351
REMARK  152  A    between atoms: _351  and  _352
REMARK  153  A    between atoms: _351  and  _354
REMARK  154  A    between atoms: _354  and  _355
REMARK  155  A    between atoms: _358  and  _360
REMARK  156  A    between atoms: _360  and  _361
REMARK  157  A    between atoms: _360  and  _363
REMARK  158  A    between atoms: _363  and  _364
REMARK  159  A    between atoms: _367  and  _369
REMARK  160  A    between atoms: _369  and  _370
REMARK  161  A    between atoms: _369  and  _372
REMARK  162  A    between atoms: _372  and  _373
REMARK  163  A    between atoms: _373  and  _374
REMARK  164  A    between atoms: _377  and  _379
REMARK  165  A    between atoms: _379  and  _380
REMARK  166  A    between atoms: _379  and  _382
REMARK  167  A    between atoms: _382  and  _383
REMARK  168  A    between atoms: _388  and  _390
REMARK  169  A    between atoms: _390  and  _391
REMARK  170  A    between atoms: _390  and  _393
REMARK  171  A    between atoms: _393  and  _394
REMARK  172  A    between atoms: _397  and  _399
REMARK  173  A    between atoms: _399  and  _400
REMARK  174  A    between atoms: _399  and  _402
REMARK  175  A    between atoms: _402  and  _403
REMARK  176  A    between atoms: _406  and  _408
REMARK  177  A    between atoms: _408  and  _409
REMARK  178  A    between atoms: _408  and  _411
REMARK  179  A    between atoms: _411  and  _412
REMARK  180  A    between atoms: _415  and  _417
REMARK  181  A    between atoms: _417  and  _418
REMARK  182  A    between atoms: _417  and  _420
REMARK  183  A    between atoms: _420  and  _421
REMARK  184  A    between atoms: _421  and  _422
REMARK  185  A    between atoms: _425  and  _427
REMARK  186  A    between atoms: _427  and  _428
REMARK  187  A    between atoms: _427  and  _430
REMARK  188  A    between atoms: _430  and  _431
REMARK  189  A    between atoms: _431  and  _432
REMARK  190  A    between atoms: _432  and  _433
REMARK  191  A    between atoms: _442  and  _444
REMARK  192  A    between atoms: _444  and  _445
REMARK  193  A    between atoms: _444  and  _447
REMARK  194  A    between atoms: _447  and  _448
REMARK  195  A    between atoms: _451  and  _453
REMARK  196  A    between atoms: _453  and  _454
REMARK  197  A    between atoms: _453  and  _456
REMARK  198  A    between atoms: _456  and  _457
REMARK  199  A    between atoms: _460  and  _462
REMARK  200  A    between atoms: _462  and  _463
REMARK  201  A    between atoms: _462  and  _465
REMARK  202  A    between atoms: _465  and  _466
REMARK  203  A    between atoms: _469  and  _471
REMARK  204  A    between atoms: _471  and  _472
REMARK  205  A    between atoms: _471  and  _474
REMARK  206  A    between atoms: _474  and  _475
REMARK  207  A    between atoms: _481  and  _483
REMARK  208  A    between atoms: _483  and  _484
REMARK  209  A    between atoms: _486  and  _488
REMARK  210  A    between atoms: _488  and  _489
REMARK  211  A    between atoms: _488  and  _491
REMARK  212  A    between atoms: _491  and  _492
REMARK  213  A    between atoms: _495  and  _497
REMARK  214  A    between atoms: _497  and  _498
REMARK  215  A    between atoms: _497  and  _500
REMARK  216  A    between atoms: _500  and  _501
REMARK  217  A    between atoms: _503  and  _505
REMARK  218  A    between atoms: _505  and  _506
REMARK  219  A    between atoms: _505  and  _508
REMARK  220  A    between atoms: _508  and  _509
REMARK  221  A    between atoms: _515  and  _517
REMARK  222  A    between atoms: _517  and  _518
REMARK  223  A    between atoms: _517  and  _520
REMARK  224  A    between atoms: _520  and  _521
REMARK  225  A    between atoms: _521  and  _522
REMARK  226  A    between atoms: _522  and  _523
REMARK  227  A    between atoms: _523  and  _524
REMARK  228  A    between atoms: _528  and  _530
REMARK  229  A    between atoms: _530  and  _531
REMARK  230  A    between atoms: _530  and  _533
REMARK  231  A    between atoms: _533  and  _534
REMARK  232  A    between atoms: _534  and  _535
REMARK                            x       y       z     vdW  Elec       q    Type
REMARK                         _______ _______ _______ _____ _____    ______ ____
ROOT
ATOM      1  CA  ASP A   4       7.885  16.573  60.623  0.00  0.00    +0.160 C 
ENDROOT
BRANCH   1   3
ATOM      2  C   ILE A   3       9.367  15.297  59.069  0.00  0.00    +0.241 C 
ATOM      3  N   ASP A   4       8.706  15.425  60.206  0.00  0.00    -0.297 N 
ATOM      4  H   ASP A   4       8.773  14.632  60.876  0.00  0.00    +0.150 HD
ATOM      5  O   ILE A   3       9.108  15.938  58.027  0.00  0.00    -0.273 OA
BRANCH   2   6
ATOM      6  CA  ILE A   3      10.371  14.147  59.071  0.00  0.00    +0.149 C 
BRANCH   6   9
ATOM      7  C   ILE A   2      10.053  12.469  57.349  0.00  0.00    +0.241 C 
ATOM      8  O   ILE A   2       9.464  11.748  58.117  0.00  0.00    -0.273 OA
ATOM      9  N   ILE A   3      10.579  13.627  57.725  0.00  0.00    -0.297 N 
ATOM     10  H   ILE A   3      11.149  14.173  57.048  0.00  0.00    +0.150 HD
BRANCH   7  11
ATOM     11  CA  ILE A   2      10.238  12.055  55.896  0.00  0.00    +0.148 C 
BRANCH  11  14
ATOM     12  C   ARG A   1      12.035  10.430  56.060  0.00  0.00    +0.238 C 
ATOM     13  O   ARG A   1      12.840  11.315  56.239  0.00  0.00    -0.274 OA
ATOM     14  N   ILE A   2      10.743  10.683  55.863  0.00  0.00    -0.297 N 
ATOM     15  H   ILE A   2      10.086   9.897  55.684  0.00  0.00    +0.150 HD
BRANCH  12  16
ATOM     16  CA  ARG A   1      12.505   8.985  56.040  0.00  0.00    +0.145 C 
BRANCH  16  17
ATOM     17  N   ARG A   1      13.487   8.837  54.992  0.00  0.00    -0.238 NA
ATOM     18  H   ARG A   1      14.404   9.318  55.090  0.00  0.00    +0.142 HD
ENDBRANCH  16  17
BRANCH  16  19
ATOM     19  CB  ARG A   1      13.137   8.632  57.406  0.00  0.00    +0.030 C 
BRANCH  19  20
ATOM     20  CG  ARG A   1      13.447   7.154  57.573  0.00  0.00    +0.045 C 
BRANCH  20  21
ATOM     21  CD  ARG A   1      12.264   6.389  58.151  0.00  0.00    +0.174 C 
BRANCH  21  22
ATOM     22  NE  ARG A   1      12.554   4.971  58.331  0.00  0.00    -0.265 N 
ATOM     23  CZ  ARG A   1      11.675   4.029  58.702  0.00  0.00    +0.342 C 
ATOM     24  NH2 ARG A   1      10.412   4.317  58.971  0.00  0.00    -0.292 N 
ATOM     25 HH21 ARG A   1       9.756   3.562  59.256  0.00  0.00    +0.255 HD
ATOM     26 HH22 ARG A   1      10.075   5.298  58.897  0.00  0.00    +0.255 HD
ATOM     27  NH1 ARG A   1      12.075   2.760  58.791  0.00  0.00    -0.292 N 
ATOM     28 HH11 ARG A   1      11.401   2.021  59.078  0.00  0.00    +0.255 HD
ATOM     29 HH12 ARG A   1      13.061   2.509  58.574  0.00  0.00    +0.255 HD
ATOM     30  HE  ARG A   1      13.532   4.662  58.156  0.00  0.00    +0.259 HD
ENDBRANCH  21  22
ENDBRANCH  20  21
ENDBRANCH  19  20
ENDBRANCH  16  19
ENDBRANCH  12  16
ENDBRANCH  11  14
BRANCH  11  31
ATOM     31  CB  ILE A   2       8.901  12.206  55.190  0.00  0.00    +0.027 C 
ATOM     32  CG2 ILE A   2       8.417  13.645  55.288  0.00  0.00    +0.002 C 
BRANCH  31  33
ATOM     33  CG1 ILE A   2       9.006  11.792  53.716  0.00  0.00    +0.002 C 
ATOM     34  CD1 ILE A   2       7.649  11.778  53.029  0.00  0.00    +0.000 C 
ENDBRANCH  31  33
ENDBRANCH  11  31
ENDBRANCH   7  11
ENDBRANCH   6   9
BRANCH   6  35
ATOM     35  CB  ILE A   3      11.696  14.539  59.749  0.00  0.00    +0.027 C 
ATOM     36  CG2 ILE A   3      12.598  13.317  59.847  0.00  0.00    +0.002 C 
BRANCH  35  37
ATOM     37  CG1 ILE A   3      12.425  15.654  59.003  0.00  0.00    +0.002 C 
ATOM     38  CD1 ILE A   3      13.741  16.031  59.663  0.00  0.00    +0.000 C 
ENDBRANCH  35  37
ENDBRANCH   6  35
ENDBRANCH   2   6
ENDBRANCH   1   3
BRANCH   1  39
ATOM     39  C   ASP A   4       6.383  16.532  60.284  0.00  0.00    +0.241 C 
ATOM     40  O   ASP A   4       5.665  17.496  60.551  0.00  0.00    -0.273 OA
ATOM     41  N   PHE A   5       5.901  15.409  59.765  0.00  0.00    -0.297 N 
ATOM     42  H   PHE A   5       6.556  14.671  59.436  0.00  0.00    +0.150 HD
BRANCH  41  43
ATOM     43  CA  PHE A   5       4.457  15.200  59.651  0.00  0.00    +0.153 C 
BRANCH  43  44
ATOM     44  C   PHE A   5       3.823  15.371  61.028  0.00  0.00    +0.241 C 
ATOM     45  O   PHE A   5       4.278  14.779  62.009  0.00  0.00    -0.273 OA
ATOM     46  N   GLY A   6       2.773  16.187  61.090  0.00  0.00    -0.295 N 
ATOM     47  H   GLY A   6       2.492  16.711  60.237  0.00  0.00    +0.150 HD
BRANCH  46  48
ATOM     48  CA  GLY A   6       2.006  16.370  62.312  0.00  0.00    +0.176 C 
BRANCH  48  49
ATOM     49  C   GLY A   6       2.191  17.742  62.920  0.00  0.00    +0.243 C 
ATOM     50  O   GLY A   6       1.247  18.302  63.464  0.00  0.00    -0.273 OA
ATOM     51  N   LEU A   7       3.396  18.297  62.820  0.00  0.00    -0.297 N 
ATOM     52  H   LEU A   7       4.118  17.846  62.222  0.00  0.00    +0.150 HD
BRANCH  51  53
ATOM     53  CA  LEU A   7       3.721  19.518  63.529  0.00  0.00    +0.149 C 
BRANCH  53  54
ATOM     54  C   LEU A   7       2.951  20.758  63.077  0.00  0.00    +0.241 C 
ATOM     55  O   LEU A   7       2.410  21.493  63.925  0.00  0.00    -0.273 OA
ATOM     56  N   SER A   8       2.942  21.006  61.767  0.00  0.00    -0.296 N 
ATOM     57  H   SER A   8       3.354  20.302  61.122  0.00  0.00    +0.150 HD
BRANCH  56  58
ATOM     58  CA  SER A   8       2.375  22.230  61.202  0.00  0.00    +0.166 C 
BRANCH  58  59
ATOM     59  CB  SER A   8       0.911  22.427  61.590  0.00  0.00    +0.229 C 
ATOM     60  OG  SER A   8       0.444  23.555  61.713  0.00  0.00    -0.286 OA
ENDBRANCH  58  59
BRANCH  58  61
ATOM     61  C   SER A   8       2.466  22.191  59.680  0.00  0.00    +0.165 C 
BRANCH  61  62
ATOM     62  O   SER A   8       1.671  21.133  59.175  0.00  0.00    -0.380 OA
ATOM     63  H   SER A   8       1.736  21.115  58.187  0.00  0.00    +0.211 HD
ENDBRANCH  61  62
ENDBRANCH  58  61
ENDBRANCH  56  58
ENDBRANCH  53  54
BRANCH  53  64
ATOM     64  CB  LEU A   7       5.218  19.805  63.432  0.00  0.00    +0.029 C 
BRANCH  64  65
ATOM     65  CG  LEU A   7       6.102  18.778  64.112  0.00  0.00    +0.002 C 
ATOM     66  CD2 LEU A   7       5.505  18.403  65.459  0.00  0.00    +0.000 C 
ATOM     67  CD1 LEU A   7       7.515  19.319  64.229  0.00  0.00    +0.000 C 
ENDBRANCH  64  65
ENDBRANCH  53  64
ENDBRANCH  51  53
ENDBRANCH  48  49
ENDBRANCH  46  48
ENDBRANCH  43  44
BRANCH  43  68
ATOM     68  CB  PHE A   5       4.122  13.813  59.117  0.00  0.00    +0.055 C 
BRANCH  68  69
ATOM     69  CG  PHE A   5       3.851  13.771  57.646  0.00  0.00    -0.020 A 
ATOM     70  CD2 PHE A   5       2.650  14.233  57.144  0.00  0.00    -0.004 A 
ATOM     71  CE2 PHE A   5       2.380  14.179  55.794  0.00  0.00    -0.000 A 
ATOM     72  CZ  PHE A   5       3.311  13.645  54.935  0.00  0.00    -0.000 A 
ATOM     73  CE1 PHE A   5       4.508  13.168  55.423  0.00  0.00    -0.000 A 
ATOM     74  CD1 PHE A   5       4.759  13.218  56.775  0.00  0.00    -0.004 A 
ENDBRANCH  68  69
ENDBRANCH  43  68
ENDBRANCH  41  43
ENDBRANCH   1  39
BRANCH   1  75
ATOM     75  CB  ASP A   4       8.539  17.910  60.241  0.00  0.00    +0.143 C 
BRANCH  75  76
ATOM     76  CG  ASP A   4       9.607  18.344  61.251  0.00  0.00    +0.367 C 
ATOM     77  OD2 ASP A   4       9.658  17.744  62.351  0.00  0.00    -0.246 OA
ATOM     78  OD1 ASP A   4      10.387  19.288  60.950  0.00  0.00    -0.246 OA
ENDBRANCH  75  76
ENDBRANCH   1  75
TORSDOF 32
REMARK  Name = ../refined-set-2016/3v5t/3v5t_pocket.pdb
REMARK  232 active torsions:
REMARK  status: ('A' for Active; 'I' for Inactive)
REMARK    1  A    between atoms: _1  and  _3
REMARK    2  A    between atoms: _3  and  _4
REMARK    3  A    between atoms: _3  and  _6
REMARK    4  A    between atoms: _6  and  _7
REMARK    5  A    between atoms: _7  and  _8
REMARK    6  A    between atoms: _8  and  _9
REMARK    7  A    between atoms: _18  and  _20
REMARK    8  A    between atoms: _20  and  _21
REMARK    9  A    between atoms: _20  and  _23
REMARK   10  A    between atoms: _26  and  _28
REMARK   11  A    between atoms: _28  and  _29
REMARK   12  A    between atoms: _28  and  _31
REMARK   13  A    between atoms: _31  and  _32
REMARK   14  A    between atoms: _35  and  _37
REMARK   15  A    between atoms: _37  and  _38
REMARK   16  A    between atoms: _40  and  _42
REMARK   17  A    between atoms: _42  and  _43
REMARK   18  A    between atoms: _42  and  _45
REMARK   19  A    between atoms: _45  and  _46
REMARK   20  A    between atoms: _46  and  _47
REMARK   21  A    between atoms: _47  and  _48
REMARK   22  A    between atoms: _48  and  _49
REMARK   23  A    between atoms: _53  and  _55
REMARK   24  A    between atoms: _55  and  _56
REMARK   25  A    between atoms: _58  and  _60
REMARK   26  A    between atoms: _60  and  _61
REMARK   27  A    between atoms: _60  and  _63
REMARK   28  A    between atoms: _63  and  _64
REMARK   29  A    between atoms: _66  and  _68
REMARK   30  A    between atoms: _68  and  _69
REMARK   31  A    between atoms: _71  and  _73
REMARK   32  A    between atoms: _73  and  _74
REMARK   33  A    between atoms: _73  and  _76
REMARK   34  A    between atoms: _76  and  _77
REMARK   35  A    between atoms: _77  and  _78
REMARK   36  A    between atoms: _81  and  _83
REMARK   37  A    between atoms: _83  and  _84
REMARK   38  A    between atoms: _83  and  _86
REMARK   39  A    between atoms: _89  and  _91
REMARK   40  A    between atoms: _91  and  _92
REMARK   41  A    between atoms: _91  and  _94
REMARK   42  A    between atoms: _94  and  _95
REMARK   43  A    between atoms: _98  and  _100
REMARK   44  A    between atoms: _100  and  _101
REMARK   45  A    between atoms: _100  and  _103
REMARK   46  A    between atoms: _103  and  _104
REMARK   47  A    between atoms: _107  and  _109
REMARK   48  A    between atoms: _109  and  _110
REMARK   49  A    between atoms: _109  and  _112
REMARK   50  A    between atoms: _114  and  _116
REMARK   51  A    between atoms: _116  and  _117
REMARK   52  A    between atoms: _120  and  _122
REMARK   53  A    between atoms: _122  and  _123
REMARK   54  A    between atoms: _122  and  _125
REMARK   55  A    between atoms: _128  and  _130
REMARK   56  A    between atoms: _130  and  _131
REMARK   57  A    between atoms: _130  and  _133
REMARK   58  A    between atoms: _133  and  _134
REMARK   59  A    between atoms: _134  and  _135
REMARK   60  A    between atoms: _135  and  _136
REMARK   61  A    between atoms: _136  and  _137
REMARK   62  A    between atoms: _141  and  _143
REMARK   63  A    between atoms: _143  and  _144
REMARK   64  A    between atoms: _143  and  _146
REMARK   65  A    between atoms: _149  and  _151
REMARK   66  A    between atoms: _151  and  _152
REMARK   67  A    between atoms: _151  and  _154
REMARK   68  A    between atoms: _154  and  _155
REMARK   69  A    between atoms: _158  and  _160
REMARK   70  A    between atoms: _160  and  _161
REMARK   71  A    between atoms: _160  and  _163
REMARK   72  A    between atoms: _163  and  _164
REMARK   73  A    between atoms: _164  and  _165
REMARK   74  A    between atoms: _168  and  _170
REMARK   75  A    between atoms: _170  and  _171
REMARK   76  A    between atoms: _170  and  _173
REMARK   77  A    between atoms: _176  and  _178
REMARK   78  A    between atoms: _178  and  _179
REMARK   79  A    between atoms: _178  and  _181
REMARK   80  A    between atoms: _181  and  _182
REMARK   81  A    between atoms: _185  and  _187
REMARK   82  A    between atoms: _187  and  _188
REMARK   83  A    between atoms: _187  and  _190
REMARK   84  A    between atoms: _190  and  _191
REMARK   85  A    between atoms: _191  and  _192
REMARK   86  A    between atoms: _194  and  _196
REMARK   87  A    between atoms: _196  and  _197
REMARK   88  A    between atoms: _196  and  _199
REMARK   89  A    between atoms: _199  and  _200
REMARK   90  A    between atoms: _200  and  _201
REMARK   91  A    between atoms: _201  and  _202
REMARK   92  A    between atoms: _202  and  _203
REMARK   93  A    between atoms: _207  and  _209
REMARK   94  A    between atoms: _209  and  _210
REMARK   95  A    between atoms: _209  and  _212
REMARK   96  A    between atoms: _212  and  _213
REMARK   97  A    between atoms: _216  and  _218
REMARK   98  A    between atoms: _218  and  _219
REMARK   99  A    between atoms: _218  and  _221
REMARK  100  A    between atoms: _221  and  _222
REMARK  101  A    between atoms: _227  and  _228
REMARK  102  A    between atoms: _230  and  _232
REMARK  103  A    between atoms: _232  and  _233
REMARK  104  A    between atoms: _232  and  _235
REMARK  105  A    between atoms: _235  and  _236
REMARK  106  A    between atoms: _236  and  _237
REMARK  107  A    between atoms: _240  and  _242
REMARK  108  A    between atoms: _242  and  _243
REMARK  109  A    between atoms: _242  and  _245
REMARK  110  A    between atoms: _245  and  _246
REMARK  111  A    between atoms: _252  and  _254
REMARK  112  A    between atoms: _254  and  _255
REMARK  113  A    between atoms: _254  and  _257
REMARK  114  A    between atoms: _257  and  _258
REMARK  115  A    between atoms: _263  and  _264
REMARK  116  A    between atoms: _266  and  _268
REMARK  117  A    between atoms: _268  and  _269
REMARK  118  A    between atoms: _268  and  _271
REMARK  119  A    between atoms: _271  and  _272
REMARK  120  A    between atoms: _275  and  _277
REMARK  121  A    between atoms: _277  and  _278
REMARK  122  A    between atoms: _277  and  _280
REMARK  123  A    between atoms: _283  and  _285
REMARK  124  A    between atoms: _285  and  _286
REMARK  125  A    between atoms: _288  and  _290
REMARK  126  A    between atoms: _290  and  _291
REMARK  127  A    between atoms: _290  and  _293
REMARK  128  A    between atoms: _293  and  _294
REMARK  129  A    between atoms: _294  and  _295
REMARK  130  A    between atoms: _298  and  _300
REMARK  131  A    between atoms: _300  and  _301
REMARK  132  A    between atoms: _300  and  _303
REMARK  133  A    between atoms: _306  and  _308
REMARK  134  A    between atoms: _308  and  _309
REMARK  135  A    between atoms: _308  and  _311
REMARK  136  A    between atoms: _311  and  _312
REMARK  137  A    between atoms: _317  and  _318
REMARK  138  A    between atoms: _320  and  _322
REMARK  139  A    between atoms: _322  and  _323
REMARK  140  A    between atoms: _322  and  _325
REMARK  141  A    between atoms: _325  and  _326
REMARK  142  A    between atoms: _329  and  _331
REMARK  143  A    between atoms: _331  and  _332
REMARK  144  A    between atoms: _334  and  _336
REMARK  145  A    between atoms: _336  and  _337
REMARK  146  A    between atoms: _339  and  _341
REMARK  147  A    between atoms: _341  and  _342
REMARK  148  A    between atoms: _341  and  _344
REMARK  149  A    between atoms: _344  and  _345
REMARK  150  A    between atoms: _345  and  _346
REMARK  151  A    between atoms: _349  and  _351
REMARK  152  A    between atoms: _351  and  _352
REMARK  153  A    between atoms: _351  and  _354
REMARK  154  A    between atoms: _354  and  _355
REMARK  155  A    between atoms: _358  and  _360
REMARK  156  A    between atoms: _360  and  _361
REMARK  157  A    between atoms: _360  and  _363
REMARK  158  A    between atoms: _363  and  _364
REMARK  159  A    between atoms: _367  and  _369
REMARK  160  A    between atoms: _369  and  _370
REMARK  161  A    between atoms: _369  and  _372
REMARK  162  A    between atoms: _372  and  _373
REMARK  163  A    between atoms: _373  and  _374
REMARK  164  A    between atoms: _377  and  _379
REMARK  165  A    between atoms: _379  and  _380
REMARK  166  A    between atoms: _379  and  _382
REMARK  167  A    between atoms: _382  and  _383
REMARK  168  A    between atoms: _388  and  _390
REMARK  169  A    between atoms: _390  and  _391
REMARK  170  A    between atoms: _390  and  _393
REMARK  171  A    between atoms: _393  and  _394
REMARK  172  A    between atoms: _397  and  _399
REMARK  173  A    between atoms: _399  and  _400
REMARK  174  A    between atoms: _399  and  _402
REMARK  175  A    between atoms: _402  and  _403
REMARK  176  A    between atoms: _406  and  _408
REMARK  177  A    between atoms: _408  and  _409
REMARK  178  A    between atoms: _408  and  _411
REMARK  179  A    between atoms: _411  and  _412
REMARK  180  A    between atoms: _415  and  _417
REMARK  181  A    between atoms: _417  and  _418
REMARK  182  A    between atoms: _417  and  _420
REMARK  183  A    between atoms: _420  and  _421
REMARK  184  A    between atoms: _421  and  _422
REMARK  185  A    between atoms: _425  and  _427
REMARK  186  A    between atoms: _427  and  _428
REMARK  187  A    between atoms: _427  and  _430
REMARK  188  A    between atoms: _430  and  _431
REMARK  189  A    between atoms: _431  and  _432
REMARK  190  A    between atoms: _432  and  _433
REMARK  191  A    between atoms: _442  and  _444
REMARK  192  A    between atoms: _444  and  _445
REMARK  193  A    between atoms: _444  and  _447
REMARK  194  A    between atoms: _447  and  _448
REMARK  195  A    between atoms: _451  and  _453
REMARK  196  A    between atoms: _453  and  _454
REMARK  197  A    between atoms: _453  and  _456
REMARK  198  A    between atoms: _456  and  _457
REMARK  199  A    between atoms: _460  and  _462
REMARK  200  A    between atoms: _462  and  _463
REMARK  201  A    between atoms: _462  and  _465
REMARK  202  A    between atoms: _465  and  _466
REMARK  203  A    between atoms: _469  and  _471
REMARK  204  A    between atoms: _471  and  _472
REMARK  205  A    between atoms: _471  and  _474
REMARK  206  A    between atoms: _474  and  _475
REMARK  207  A    between atoms: _481  and  _483
REMARK  208  A    between atoms: _483  and  _484
REMARK  209  A    between atoms: _486  and  _488
REMARK  210  A    between atoms: _488  and  _489
REMARK  211  A    between atoms: _488  and  _491
REMARK  212  A    between atoms: _491  and  _492
REMARK  213  A    between atoms: _495  and  _497
REMARK  214  A    between atoms: _497  and  _498
REMARK  215  A    between atoms: _497  and  _500
REMARK  216  A    between atoms: _500  and  _501
REMARK  217  A    between atoms: _503  and  _505
REMARK  218  A    between atoms: _505  and  _506
REMARK  219  A    between atoms: _505  and  _508
REMARK  220  A    between atoms: _508  and  _509
REMARK  221  A    between atoms: _515  and  _517
REMARK  222  A    between atoms: _517  and  _518
REMARK  223  A    between atoms: _517  and  _520
REMARK  224  A    between atoms: _520  and  _521
REMARK  225  A    between atoms: _521  and  _522
REMARK  226  A    between atoms: _522  and  _523
REMARK  227  A    between atoms: _523  and  _524
REMARK  228  A    between atoms: _528  and  _530
REMARK  229  A    between atoms: _530  and  _531
REMARK  230  A    between atoms: _530  and  _533
REMARK  231  A    between atoms: _533  and  _534
REMARK  232  A    between atoms: _534  and  _535
REMARK                            x       y       z     vdW  Elec       q    Type
REMARK                         _______ _______ _______ _____ _____    ______ ____
ROOT
ATOM      1  CB  PHE A   1       3.471  24.174  66.173  0.00  0.00    +0.051 C 
ENDROOT
BRANCH   1   2
ATOM      2  CG  PHE A   1       3.452  23.244  67.342  0.00  0.00    -0.020 A 
ATOM      3  CD2 PHE A   1       3.408  23.750  68.631  0.00  0.00    -0.004 A 
ATOM      4  CE2 PHE A   1       3.384  22.905  69.725  0.00  0.00    -0.000 A 
ATOM      5  CZ  PHE A   1       3.385  21.533  69.536  0.00  0.00    -0.000 A 
ATOM      6  CE1 PHE A   1       3.420  21.011  68.250  0.00  0.00    -0.000 A 
ATOM      7  CD1 PHE A   1       3.450  21.863  67.162  0.00  0.00    -0.004 A 
ENDBRANCH   1   2
BRANCH   1   8
ATOM      8  CA  PHE A   1       2.091  24.732  65.824  0.00  0.00    +0.137 C 
BRANCH   8   9
ATOM      9  N   PHE A   1       1.195  23.653  65.415  0.00  0.00    -0.239 NA
ATOM     10  H   PHE A   1       1.335  23.197  64.491  0.00  0.00    +0.142 HD
ENDBRANCH   8   9
BRANCH   8  11
ATOM     11  C   PHE A   1       2.213  25.777  64.739  0.00  0.00    +0.224 C 
ATOM     12  O   PHE A   1       2.200  25.454  63.562  0.00  0.00    -0.287 OA
ENDBRANCH   8  11
ENDBRANCH   1   8
TORSDOF 4
REMARK  Name = ../refined-set-2016/3v5t/3v5t_pocket.pdb
REMARK  232 active torsions:
REMARK  status: ('A' for Active; 'I' for Inactive)
REMARK    1  A    between atoms: _1  and  _3
REMARK    2  A    between atoms: _3  and  _4
REMARK    3  A    between atoms: _3  and  _6
REMARK    4  A    between atoms: _6  and  _7
REMARK    5  A    between atoms: _7  and  _8
REMARK    6  A    between atoms: _8  and  _9
REMARK    7  A    between atoms: _18  and  _20
REMARK    8  A    between atoms: _20  and  _21
REMARK    9  A    between atoms: _20  and  _23
REMARK   10  A    between atoms: _26  and  _28
REMARK   11  A    between atoms: _28  and  _29
REMARK   12  A    between atoms: _28  and  _31
REMARK   13  A    between atoms: _31  and  _32
REMARK   14  A    between atoms: _35  and  _37
REMARK   15  A    between atoms: _37  and  _38
REMARK   16  A    between atoms: _40  and  _42
REMARK   17  A    between atoms: _42  and  _43
REMARK   18  A    between atoms: _42  and  _45
REMARK   19  A    between atoms: _45  and  _46
REMARK   20  A    between atoms: _46  and  _47
REMARK   21  A    between atoms: _47  and  _48
REMARK   22  A    between atoms: _48  and  _49
REMARK   23  A    between atoms: _53  and  _55
REMARK   24  A    between atoms: _55  and  _56
REMARK   25  A    between atoms: _58  and  _60
REMARK   26  A    between atoms: _60  and  _61
REMARK   27  A    between atoms: _60  and  _63
REMARK   28  A    between atoms: _63  and  _64
REMARK   29  A    between atoms: _66  and  _68
REMARK   30  A    between atoms: _68  and  _69
REMARK   31  A    between atoms: _71  and  _73
REMARK   32  A    between atoms: _73  and  _74
REMARK   33  A    between atoms: _73  and  _76
REMARK   34  A    between atoms: _76  and  _77
REMARK   35  A    between atoms: _77  and  _78
REMARK   36  A    between atoms: _81  and  _83
REMARK   37  A    between atoms: _83  and  _84
REMARK   38  A    between atoms: _83  and  _86
REMARK   39  A    between atoms: _89  and  _91
REMARK   40  A    between atoms: _91  and  _92
REMARK   41  A    between atoms: _91  and  _94
REMARK   42  A    between atoms: _94  and  _95
REMARK   43  A    between atoms: _98  and  _100
REMARK   44  A    between atoms: _100  and  _101
REMARK   45  A    between atoms: _100  and  _103
REMARK   46  A    between atoms: _103  and  _104
REMARK   47  A    between atoms: _107  and  _109
REMARK   48  A    between atoms: _109  and  _110
REMARK   49  A    between atoms: _109  and  _112
REMARK   50  A    between atoms: _114  and  _116
REMARK   51  A    between atoms: _116  and  _117
REMARK   52  A    between atoms: _120  and  _122
REMARK   53  A    between atoms: _122  and  _123
REMARK   54  A    between atoms: _122  and  _125
REMARK   55  A    between atoms: _128  and  _130
REMARK   56  A    between atoms: _130  and  _131
REMARK   57  A    between atoms: _130  and  _133
REMARK   58  A    between atoms: _133  and  _134
REMARK   59  A    between atoms: _134  and  _135
REMARK   60  A    between atoms: _135  and  _136
REMARK   61  A    between atoms: _136  and  _137
REMARK   62  A    between atoms: _141  and  _143
REMARK   63  A    between atoms: _143  and  _144
REMARK   64  A    between atoms: _143  and  _146
REMARK   65  A    between atoms: _149  and  _151
REMARK   66  A    between atoms: _151  and  _152
REMARK   67  A    between atoms: _151  and  _154
REMARK   68  A    between atoms: _154  and  _155
REMARK   69  A    between atoms: _158  and  _160
REMARK   70  A    between atoms: _160  and  _161
REMARK   71  A    between atoms: _160  and  _163
REMARK   72  A    between atoms: _163  and  _164
REMARK   73  A    between atoms: _164  and  _165
REMARK   74  A    between atoms: _168  and  _170
REMARK   75  A    between atoms: _170  and  _171
REMARK   76  A    between atoms: _170  and  _173
REMARK   77  A    between atoms: _176  and  _178
REMARK   78  A    between atoms: _178  and  _179
REMARK   79  A    between atoms: _178  and  _181
REMARK   80  A    between atoms: _181  and  _182
REMARK   81  A    between atoms: _185  and  _187
REMARK   82  A    between atoms: _187  and  _188
REMARK   83  A    between atoms: _187  and  _190
REMARK   84  A    between atoms: _190  and  _191
REMARK   85  A    between atoms: _191  and  _192
REMARK   86  A    between atoms: _194  and  _196
REMARK   87  A    between atoms: _196  and  _197
REMARK   88  A    between atoms: _196  and  _199
REMARK   89  A    between atoms: _199  and  _200
REMARK   90  A    between atoms: _200  and  _201
REMARK   91  A    between atoms: _201  and  _202
REMARK   92  A    between atoms: _202  and  _203
REMARK   93  A    between atoms: _207  and  _209
REMARK   94  A    between atoms: _209  and  _210
REMARK   95  A    between atoms: _209  and  _212
REMARK   96  A    between atoms: _212  and  _213
REMARK   97  A    between atoms: _216  and  _218
REMARK   98  A    between atoms: _218  and  _219
REMARK   99  A    between atoms: _218  and  _221
REMARK  100  A    between atoms: _221  and  _222
REMARK  101  A    between atoms: _227  and  _228
REMARK  102  A    between atoms: _230  and  _232
REMARK  103  A    between atoms: _232  and  _233
REMARK  104  A    between atoms: _232  and  _235
REMARK  105  A    between atoms: _235  and  _236
REMARK  106  A    between atoms: _236  and  _237
REMARK  107  A    between atoms: _240  and  _242
REMARK  108  A    between atoms: _242  and  _243
REMARK  109  A    between atoms: _242  and  _245
REMARK  110  A    between atoms: _245  and  _246
REMARK  111  A    between atoms: _252  and  _254
REMARK  112  A    between atoms: _254  and  _255
REMARK  113  A    between atoms: _254  and  _257
REMARK  114  A    between atoms: _257  and  _258
REMARK  115  A    between atoms: _263  and  _264
REMARK  116  A    between atoms: _266  and  _268
REMARK  117  A    between atoms: _268  and  _269
REMARK  118  A    between atoms: _268  and  _271
REMARK  119  A    between atoms: _271  and  _272
REMARK  120  A    between atoms: _275  and  _277
REMARK  121  A    between atoms: _277  and  _278
REMARK  122  A    between atoms: _277  and  _280
REMARK  123  A    between atoms: _283  and  _285
REMARK  124  A    between atoms: _285  and  _286
REMARK  125  A    between atoms: _288  and  _290
REMARK  126  A    between atoms: _290  and  _291
REMARK  127  A    between atoms: _290  and  _293
REMARK  128  A    between atoms: _293  and  _294
REMARK  129  A    between atoms: _294  and  _295
REMARK  130  A    between atoms: _298  and  _300
REMARK  131  A    between atoms: _300  and  _301
REMARK  132  A    between atoms: _300  and  _303
REMARK  133  A    between atoms: _306  and  _308
REMARK  134  A    between atoms: _308  and  _309
REMARK  135  A    between atoms: _308  and  _311
REMARK  136  A    between atoms: _311  and  _312
REMARK  137  A    between atoms: _317  and  _318
REMARK  138  A    between atoms: _320  and  _322
REMARK  139  A    between atoms: _322  and  _323
REMARK  140  A    between atoms: _322  and  _325
REMARK  141  A    between atoms: _325  and  _326
REMARK  142  A    between atoms: _329  and  _331
REMARK  143  A    between atoms: _331  and  _332
REMARK  144  A    between atoms: _334  and  _336
REMARK  145  A    between atoms: _336  and  _337
REMARK  146  A    between atoms: _339  and  _341
REMARK  147  A    between atoms: _341  and  _342
REMARK  148  A    between atoms: _341  and  _344
REMARK  149  A    between atoms: _344  and  _345
REMARK  150  A    between atoms: _345  and  _346
REMARK  151  A    between atoms: _349  and  _351
REMARK  152  A    between atoms: _351  and  _352
REMARK  153  A    between atoms: _351  and  _354
REMARK  154  A    between atoms: _354  and  _355
REMARK  155  A    between atoms: _358  and  _360
REMARK  156  A    between atoms: _360  and  _361
REMARK  157  A    between atoms: _360  and  _363
REMARK  158  A    between atoms: _363  and  _364
REMARK  159  A    between atoms: _367  and  _369
REMARK  160  A    between atoms: _369  and  _370
REMARK  161  A    between atoms: _369  and  _372
REMARK  162  A    between atoms: _372  and  _373
REMARK  163  A    between atoms: _373  and  _374
REMARK  164  A    between atoms: _377  and  _379
REMARK  165  A    between atoms: _379  and  _380
REMARK  166  A    between atoms: _379  and  _382
REMARK  167  A    between atoms: _382  and  _383
REMARK  168  A    between atoms: _388  and  _390
REMARK  169  A    between atoms: _390  and  _391
REMARK  170  A    between atoms: _390  and  _393
REMARK  171  A    between atoms: _393  and  _394
REMARK  172  A    between atoms: _397  and  _399
REMARK  173  A    between atoms: _399  and  _400
REMARK  174  A    between atoms: _399  and  _402
REMARK  175  A    between atoms: _402  and  _403
REMARK  176  A    between atoms: _406  and  _408
REMARK  177  A    between atoms: _408  and  _409
REMARK  178  A    between atoms: _408  and  _411
REMARK  179  A    between atoms: _411  and  _412
REMARK  180  A    between atoms: _415  and  _417
REMARK  181  A    between atoms: _417  and  _418
REMARK  182  A    between atoms: _417  and  _420
REMARK  183  A    between atoms: _420  and  _421
REMARK  184  A    between atoms: _421  and  _422
REMARK  185  A    between atoms: _425  and  _427
REMARK  186  A    between atoms: _427  and  _428
REMARK  187  A    between atoms: _427  and  _430
REMARK  188  A    between atoms: _430  and  _431
REMARK  189  A    between atoms: _431  and  _432
REMARK  190  A    between atoms: _432  and  _433
REMARK  191  A    between atoms: _442  and  _444
REMARK  192  A    between atoms: _444  and  _445
REMARK  193  A    between atoms: _444  and  _447
REMARK  194  A    between atoms: _447  and  _448
REMARK  195  A    between atoms: _451  and  _453
REMARK  196  A    between atoms: _453  and  _454
REMARK  197  A    between atoms: _453  and  _456
REMARK  198  A    between atoms: _456  and  _457
REMARK  199  A    between atoms: _460  and  _462
REMARK  200  A    between atoms: _462  and  _463
REMARK  201  A    between atoms: _462  and  _465
REMARK  202  A    between atoms: _465  and  _466
REMARK  203  A    between atoms: _469  and  _471
REMARK  204  A    between atoms: _471  and  _472
REMARK  205  A    between atoms: _471  and  _474
REMARK  206  A    between atoms: _474  and  _475
REMARK  207  A    between atoms: _481  and  _483
REMARK  208  A    between atoms: _483  and  _484
REMARK  209  A    between atoms: _486  and  _488
REMARK  210  A    between atoms: _488  and  _489
REMARK  211  A    between atoms: _488  and  _491
REMARK  212  A    between atoms: _491  and  _492
REMARK  213  A    between atoms: _495  and  _497
REMARK  214  A    between atoms: _497  and  _498
REMARK  215  A    between atoms: _497  and  _500
REMARK  216  A    between atoms: _500  and  _501
REMARK  217  A    between atoms: _503  and  _505
REMARK  218  A    between atoms: _505  and  _506
REMARK  219  A    between atoms: _505  and  _508
REMARK  220  A    between atoms: _508  and  _509
REMARK  221  A    between atoms: _515  and  _517
REMARK  222  A    between atoms: _517  and  _518
REMARK  223  A    between atoms: _517  and  _520
REMARK  224  A    between atoms: _520  and  _521
REMARK  225  A    between atoms: _521  and  _522
REMARK  226  A    between atoms: _522  and  _523
REMARK  227  A    between atoms: _523  and  _524
REMARK  228  A    between atoms: _528  and  _530
REMARK  229  A    between atoms: _530  and  _531
REMARK  230  A    between atoms: _530  and  _533
REMARK  231  A    between atoms: _533  and  _534
REMARK  232  A    between atoms: _534  and  _535
REMARK                            x       y       z     vdW  Elec       q    Type
REMARK                         _______ _______ _______ _____ _____    ______ ____
ROOT
ATOM      1  CG  LYS A   1      23.891  23.422  53.836  0.00  0.00    -0.000 C 
ENDROOT
BRANCH   1   2
ATOM      2  CB  LYS A   1      24.569  24.759  53.526  0.00  0.00    +0.025 C 
BRANCH   2   3
ATOM      3  CA  LYS A   1      23.728  26.023  53.743  0.00  0.00    +0.133 C 
BRANCH   3   4
ATOM      4  N   LYS A   1      23.092  26.415  52.487  0.00  0.00    -0.239 NA
ATOM      5  H   LYS A   1      23.410  25.989  51.593  0.00  0.00    +0.142 HD
ENDBRANCH   3   4
BRANCH   3   6
ATOM      6  C   LYS A   1      24.558  27.141  54.395  0.00  0.00    +0.224 C 
ATOM      7  O   LYS A   1      24.615  27.236  55.607  0.00  0.00    -0.287 OA
ENDBRANCH   3   6
ENDBRANCH   2   3
ENDBRANCH   1   2
BRANCH   1   8
ATOM      8  CD  LYS A   1      22.372  23.386  53.665  0.00  0.00    -0.024 C 
BRANCH   8   9
ATOM      9  CE  LYS A   1      21.631  23.384  55.003  0.00  0.00    -0.086 C 
BRANCH   9  10
ATOM     10  NZ  LYS A   1      21.516  22.010  55.586  0.00  0.00    +0.380 N 
ATOM     11  HZ1 LYS A   1      21.007  22.060  56.491  0.00  0.00    -0.089 HD
ATOM     12  HZ2 LYS A   1      22.467  21.621  55.743  0.00  0.00    -0.089 HD
ATOM     13  HZ3 LYS A   1      20.994  21.398  54.927  0.00  0.00    -0.089 HD
ENDBRANCH   9  10
ENDBRANCH   8   9
ENDBRANCH   1   8
TORSDOF 7
REMARK  Name = ../refined-set-2016/3v5t/3v5t_pocket.pdb
REMARK  232 active torsions:
REMARK  status: ('A' for Active; 'I' for Inactive)
REMARK    1  A    between atoms: _1  and  _3
REMARK    2  A    between atoms: _3  and  _4
REMARK    3  A    between atoms: _3  and  _6
REMARK    4  A    between atoms: _6  and  _7
REMARK    5  A    between atoms: _7  and  _8
REMARK    6  A    between atoms: _8  and  _9
REMARK    7  A    between atoms: _18  and  _20
REMARK    8  A    between atoms: _20  and  _21
REMARK    9  A    between atoms: _20  and  _23
REMARK   10  A    between atoms: _26  and  _28
REMARK   11  A    between atoms: _28  and  _29
REMARK   12  A    between atoms: _28  and  _31
REMARK   13  A    between atoms: _31  and  _32
REMARK   14  A    between atoms: _35  and  _37
REMARK   15  A    between atoms: _37  and  _38
REMARK   16  A    between atoms: _40  and  _42
REMARK   17  A    between atoms: _42  and  _43
REMARK   18  A    between atoms: _42  and  _45
REMARK   19  A    between atoms: _45  and  _46
REMARK   20  A    between atoms: _46  and  _47
REMARK   21  A    between atoms: _47  and  _48
REMARK   22  A    between atoms: _48  and  _49
REMARK   23  A    between atoms: _53  and  _55
REMARK   24  A    between atoms: _55  and  _56
REMARK   25  A    between atoms: _58  and  _60
REMARK   26  A    between atoms: _60  and  _61
REMARK   27  A    between atoms: _60  and  _63
REMARK   28  A    between atoms: _63  and  _64
REMARK   29  A    between atoms: _66  and  _68
REMARK   30  A    between atoms: _68  and  _69
REMARK   31  A    between atoms: _71  and  _73
REMARK   32  A    between atoms: _73  and  _74
REMARK   33  A    between atoms: _73  and  _76
REMARK   34  A    between atoms: _76  and  _77
REMARK   35  A    between atoms: _77  and  _78
REMARK   36  A    between atoms: _81  and  _83
REMARK   37  A    between atoms: _83  and  _84
REMARK   38  A    between atoms: _83  and  _86
REMARK   39  A    between atoms: _89  and  _91
REMARK   40  A    between atoms: _91  and  _92
REMARK   41  A    between atoms: _91  and  _94
REMARK   42  A    between atoms: _94  and  _95
REMARK   43  A    between atoms: _98  and  _100
REMARK   44  A    between atoms: _100  and  _101
REMARK   45  A    between atoms: _100  and  _103
REMARK   46  A    between atoms: _103  and  _104
REMARK   47  A    between atoms: _107  and  _109
REMARK   48  A    between atoms: _109  and  _110
REMARK   49  A    between atoms: _109  and  _112
REMARK   50  A    between atoms: _114  and  _116
REMARK   51  A    between atoms: _116  and  _117
REMARK   52  A    between atoms: _120  and  _122
REMARK   53  A    between atoms: _122  and  _123
REMARK   54  A    between atoms: _122  and  _125
REMARK   55  A    between atoms: _128  and  _130
REMARK   56  A    between atoms: _130  and  _131
REMARK   57  A    between atoms: _130  and  _133
REMARK   58  A    between atoms: _133  and  _134
REMARK   59  A    between atoms: _134  and  _135
REMARK   60  A    between atoms: _135  and  _136
REMARK   61  A    between atoms: _136  and  _137
REMARK   62  A    between atoms: _141  and  _143
REMARK   63  A    between atoms: _143  and  _144
REMARK   64  A    between atoms: _143  and  _146
REMARK   65  A    between atoms: _149  and  _151
REMARK   66  A    between atoms: _151  and  _152
REMARK   67  A    between atoms: _151  and  _154
REMARK   68  A    between atoms: _154  and  _155
REMARK   69  A    between atoms: _158  and  _160
REMARK   70  A    between atoms: _160  and  _161
REMARK   71  A    between atoms: _160  and  _163
REMARK   72  A    between atoms: _163  and  _164
REMARK   73  A    between atoms: _164  and  _165
REMARK   74  A    between atoms: _168  and  _170
REMARK   75  A    between atoms: _170  and  _171
REMARK   76  A    between atoms: _170  and  _173
REMARK   77  A    between atoms: _176  and  _178
REMARK   78  A    between atoms: _178  and  _179
REMARK   79  A    between atoms: _178  and  _181
REMARK   80  A    between atoms: _181  and  _182
REMARK   81  A    between atoms: _185  and  _187
REMARK   82  A    between atoms: _187  and  _188
REMARK   83  A    between atoms: _187  and  _190
REMARK   84  A    between atoms: _190  and  _191
REMARK   85  A    between atoms: _191  and  _192
REMARK   86  A    between atoms: _194  and  _196
REMARK   87  A    between atoms: _196  and  _197
REMARK   88  A    between atoms: _196  and  _199
REMARK   89  A    between atoms: _199  and  _200
REMARK   90  A    between atoms: _200  and  _201
REMARK   91  A    between atoms: _201  and  _202
REMARK   92  A    between atoms: _202  and  _203
REMARK   93  A    between atoms: _207  and  _209
REMARK   94  A    between atoms: _209  and  _210
REMARK   95  A    between atoms: _209  and  _212
REMARK   96  A    between atoms: _212  and  _213
REMARK   97  A    between atoms: _216  and  _218
REMARK   98  A    between atoms: _218  and  _219
REMARK   99  A    between atoms: _218  and  _221
REMARK  100  A    between atoms: _221  and  _222
REMARK  101  A    between atoms: _227  and  _228
REMARK  102  A    between atoms: _230  and  _232
REMARK  103  A    between atoms: _232  and  _233
REMARK  104  A    between atoms: _232  and  _235
REMARK  105  A    between atoms: _235  and  _236
REMARK  106  A    between atoms: _236  and  _237
REMARK  107  A    between atoms: _240  and  _242
REMARK  108  A    between atoms: _242  and  _243
REMARK  109  A    between atoms: _242  and  _245
REMARK  110  A    between atoms: _245  and  _246
REMARK  111  A    between atoms: _252  and  _254
REMARK  112  A    between atoms: _254  and  _255
REMARK  113  A    between atoms: _254  and  _257
REMARK  114  A    between atoms: _257  and  _258
REMARK  115  A    between atoms: _263  and  _264
REMARK  116  A    between atoms: _266  and  _268
REMARK  117  A    between atoms: _268  and  _269
REMARK  118  A    between atoms: _268  and  _271
REMARK  119  A    between atoms: _271  and  _272
REMARK  120  A    between atoms: _275  and  _277
REMARK  121  A    between atoms: _277  and  _278
REMARK  122  A    between atoms: _277  and  _280
REMARK  123  A    between atoms: _283  and  _285
REMARK  124  A    between atoms: _285  and  _286
REMARK  125  A    between atoms: _288  and  _290
REMARK  126  A    between atoms: _290  and  _291
REMARK  127  A    between atoms: _290  and  _293
REMARK  128  A    between atoms: _293  and  _294
REMARK  129  A    between atoms: _294  and  _295
REMARK  130  A    between atoms: _298  and  _300
REMARK  131  A    between atoms: _300  and  _301
REMARK  132  A    between atoms: _300  and  _303
REMARK  133  A    between atoms: _306  and  _308
REMARK  134  A    between atoms: _308  and  _309
REMARK  135  A    between atoms: _308  and  _311
REMARK  136  A    between atoms: _311  and  _312
REMARK  137  A    between atoms: _317  and  _318
REMARK  138  A    between atoms: _320  and  _322
REMARK  139  A    between atoms: _322  and  _323
REMARK  140  A    between atoms: _322  and  _325
REMARK  141  A    between atoms: _325  and  _326
REMARK  142  A    between atoms: _329  and  _331
REMARK  143  A    between atoms: _331  and  _332
REMARK  144  A    between atoms: _334  and  _336
REMARK  145  A    between atoms: _336  and  _337
REMARK  146  A    between atoms: _339  and  _341
REMARK  147  A    between atoms: _341  and  _342
REMARK  148  A    between atoms: _341  and  _344
REMARK  149  A    between atoms: _344  and  _345
REMARK  150  A    between atoms: _345  and  _346
REMARK  151  A    between atoms: _349  and  _351
REMARK  152  A    between atoms: _351  and  _352
REMARK  153  A    between atoms: _351  and  _354
REMARK  154  A    between atoms: _354  and  _355
REMARK  155  A    between atoms: _358  and  _360
REMARK  156  A    between atoms: _360  and  _361
REMARK  157  A    between atoms: _360  and  _363
REMARK  158  A    between atoms: _363  and  _364
REMARK  159  A    between atoms: _367  and  _369
REMARK  160  A    between atoms: _369  and  _370
REMARK  161  A    between atoms: _369  and  _372
REMARK  162  A    between atoms: _372  and  _373
REMARK  163  A    between atoms: _373  and  _374
REMARK  164  A    between atoms: _377  and  _379
REMARK  165  A    between atoms: _379  and  _380
REMARK  166  A    between atoms: _379  and  _382
REMARK  167  A    between atoms: _382  and  _383
REMARK  168  A    between atoms: _388  and  _390
REMARK  169  A    between atoms: _390  and  _391
REMARK  170  A    between atoms: _390  and  _393
REMARK  171  A    between atoms: _393  and  _394
REMARK  172  A    between atoms: _397  and  _399
REMARK  173  A    between atoms: _399  and  _400
REMARK  174  A    between atoms: _399  and  _402
REMARK  175  A    between atoms: _402  and  _403
REMARK  176  A    between atoms: _406  and  _408
REMARK  177  A    between atoms: _408  and  _409
REMARK  178  A    between atoms: _408  and  _411
REMARK  179  A    between atoms: _411  and  _412
REMARK  180  A    between atoms: _415  and  _417
REMARK  181  A    between atoms: _417  and  _418
REMARK  182  A    between atoms: _417  and  _420
REMARK  183  A    between atoms: _420  and  _421
REMARK  184  A    between atoms: _421  and  _422
REMARK  185  A    between atoms: _425  and  _427
REMARK  186  A    between atoms: _427  and  _428
REMARK  187  A    between atoms: _427  and  _430
REMARK  188  A    between atoms: _430  and  _431
REMARK  189  A    between atoms: _431  and  _432
REMARK  190  A    between atoms: _432  and  _433
REMARK  191  A    between atoms: _442  and  _444
REMARK  192  A    between atoms: _444  and  _445
REMARK  193  A    between atoms: _444  and  _447
REMARK  194  A    between atoms: _447  and  _448
REMARK  195  A    between atoms: _451  and  _453
REMARK  196  A    between atoms: _453  and  _454
REMARK  197  A    between atoms: _453  and  _456
REMARK  198  A    between atoms: _456  and  _457
REMARK  199  A    between atoms: _460  and  _462
REMARK  200  A    between atoms: _462  and  _463
REMARK  201  A    between atoms: _462  and  _465
REMARK  202  A    between atoms: _465  and  _466
REMARK  203  A    between atoms: _469  and  _471
REMARK  204  A    between atoms: _471  and  _472
REMARK  205  A    between atoms: _471  and  _474
REMARK  206  A    between atoms: _474  and  _475
REMARK  207  A    between atoms: _481  and  _483
REMARK  208  A    between atoms: _483  and  _484
REMARK  209  A    between atoms: _486  and  _488
REMARK  210  A    between atoms: _488  and  _489
REMARK  211  A    between atoms: _488  and  _491
REMARK  212  A    between atoms: _491  and  _492
REMARK  213  A    between atoms: _495  and  _497
REMARK  214  A    between atoms: _497  and  _498
REMARK  215  A    between atoms: _497  and  _500
REMARK  216  A    between atoms: _500  and  _501
REMARK  217  A    between atoms: _503  and  _505
REMARK  218  A    between atoms: _505  and  _506
REMARK  219  A    between atoms: _505  and  _508
REMARK  220  A    between atoms: _508  and  _509
REMARK  221  A    between atoms: _515  and  _517
REMARK  222  A    between atoms: _517  and  _518
REMARK  223  A    between atoms: _517  and  _520
REMARK  224  A    between atoms: _520  and  _521
REMARK  225  A    between atoms: _521  and  _522
REMARK  226  A    between atoms: _522  and  _523
REMARK  227  A    between atoms: _523  and  _524
REMARK  228  A    between atoms: _528  and  _530
REMARK  229  A    between atoms: _530  and  _531
REMARK  230  A    between atoms: _530  and  _533
REMARK  231  A    between atoms: _533  and  _534
REMARK  232  A    between atoms: _534  and  _535
REMARK                            x       y       z     vdW  Elec       q    Type
REMARK                         _______ _______ _______ _____ _____    ______ ____
ROOT
ATOM      1  CB  GLN A   1      21.499  27.763  57.249  0.00  0.00    +0.035 C 
ENDROOT
BRANCH   1   2
ATOM      2  CA  GLN A   1      21.733  29.277  57.361  0.00  0.00    +0.134 C 
BRANCH   2   3
ATOM      3  N   GLN A   1      22.160  29.822  56.074  0.00  0.00    -0.239 NA
ATOM      4  H   GLN A   1      22.235  29.183  55.257  0.00  0.00    +0.142 HD
ENDBRANCH   2   3
BRANCH   2   5
ATOM      5  C   GLN A   1      22.794  29.503  58.417  0.00  0.00    +0.224 C 
ATOM      6  O   GLN A   1      22.532  30.055  59.481  0.00  0.00    -0.287 OA
ENDBRANCH   2   5
ENDBRANCH   1   2
BRANCH   1   7
ATOM      7  CG  GLN A   1      20.070  27.350  56.985  0.00  0.00    +0.087 C 
BRANCH   7   8
ATOM      8  CD  GLN A   1      19.741  26.013  57.629  0.00  0.00    +0.219 C 
ATOM      9  NE2 GLN A   1      18.628  25.972  58.356  0.00  0.00    -0.329 N 
ATOM     10 HE21 GLN A   1      18.346  25.088  58.826  0.00  0.00    +0.145 HD
ATOM     11 HE22 GLN A   1      18.040  26.824  58.454  0.00  0.00    +0.145 HD
ATOM     12  OE1 GLN A   1      20.479  25.029  57.478  0.00  0.00    -0.275 OA
ENDBRANCH   7   8
ENDBRANCH   1   7
TORSDOF 5
REMARK  Name = ../refined-set-2016/3v5t/3v5t_pocket.pdb
REMARK  232 active torsions:
REMARK  status: ('A' for Active; 'I' for Inactive)
REMARK    1  A    between atoms: _1  and  _3
REMARK    2  A    between atoms: _3  and  _4
REMARK    3  A    between atoms: _3  and  _6
REMARK    4  A    between atoms: _6  and  _7
REMARK    5  A    between atoms: _7  and  _8
REMARK    6  A    between atoms: _8  and  _9
REMARK    7  A    between atoms: _18  and  _20
REMARK    8  A    between atoms: _20  and  _21
REMARK    9  A    between atoms: _20  and  _23
REMARK   10  A    between atoms: _26  and  _28
REMARK   11  A    between atoms: _28  and  _29
REMARK   12  A    between atoms: _28  and  _31
REMARK   13  A    between atoms: _31  and  _32
REMARK   14  A    between atoms: _35  and  _37
REMARK   15  A    between atoms: _37  and  _38
REMARK   16  A    between atoms: _40  and  _42
REMARK   17  A    between atoms: _42  and  _43
REMARK   18  A    between atoms: _42  and  _45
REMARK   19  A    between atoms: _45  and  _46
REMARK   20  A    between atoms: _46  and  _47
REMARK   21  A    between atoms: _47  and  _48
REMARK   22  A    between atoms: _48  and  _49
REMARK   23  A    between atoms: _53  and  _55
REMARK   24  A    between atoms: _55  and  _56
REMARK   25  A    between atoms: _58  and  _60
REMARK   26  A    between atoms: _60  and  _61
REMARK   27  A    between atoms: _60  and  _63
REMARK   28  A    between atoms: _63  and  _64
REMARK   29  A    between atoms: _66  and  _68
REMARK   30  A    between atoms: _68  and  _69
REMARK   31  A    between atoms: _71  and  _73
REMARK   32  A    between atoms: _73  and  _74
REMARK   33  A    between atoms: _73  and  _76
REMARK   34  A    between atoms: _76  and  _77
REMARK   35  A    between atoms: _77  and  _78
REMARK   36  A    between atoms: _81  and  _83
REMARK   37  A    between atoms: _83  and  _84
REMARK   38  A    between atoms: _83  and  _86
REMARK   39  A    between atoms: _89  and  _91
REMARK   40  A    between atoms: _91  and  _92
REMARK   41  A    between atoms: _91  and  _94
REMARK   42  A    between atoms: _94  and  _95
REMARK   43  A    between atoms: _98  and  _100
REMARK   44  A    between atoms: _100  and  _101
REMARK   45  A    between atoms: _100  and  _103
REMARK   46  A    between atoms: _103  and  _104
REMARK   47  A    between atoms: _107  and  _109
REMARK   48  A    between atoms: _109  and  _110
REMARK   49  A    between atoms: _109  and  _112
REMARK   50  A    between atoms: _114  and  _116
REMARK   51  A    between atoms: _116  and  _117
REMARK   52  A    between atoms: _120  and  _122
REMARK   53  A    between atoms: _122  and  _123
REMARK   54  A    between atoms: _122  and  _125
REMARK   55  A    between atoms: _128  and  _130
REMARK   56  A    between atoms: _130  and  _131
REMARK   57  A    between atoms: _130  and  _133
REMARK   58  A    between atoms: _133  and  _134
REMARK   59  A    between atoms: _134  and  _135
REMARK   60  A    between atoms: _135  and  _136
REMARK   61  A    between atoms: _136  and  _137
REMARK   62  A    between atoms: _141  and  _143
REMARK   63  A    between atoms: _143  and  _144
REMARK   64  A    between atoms: _143  and  _146
REMARK   65  A    between atoms: _149  and  _151
REMARK   66  A    between atoms: _151  and  _152
REMARK   67  A    between atoms: _151  and  _154
REMARK   68  A    between atoms: _154  and  _155
REMARK   69  A    between atoms: _158  and  _160
REMARK   70  A    between atoms: _160  and  _161
REMARK   71  A    between atoms: _160  and  _163
REMARK   72  A    between atoms: _163  and  _164
REMARK   73  A    between atoms: _164  and  _165
REMARK   74  A    between atoms: _168  and  _170
REMARK   75  A    between atoms: _170  and  _171
REMARK   76  A    between atoms: _170  and  _173
REMARK   77  A    between atoms: _176  and  _178
REMARK   78  A    between atoms: _178  and  _179
REMARK   79  A    between atoms: _178  and  _181
REMARK   80  A    between atoms: _181  and  _182
REMARK   81  A    between atoms: _185  and  _187
REMARK   82  A    between atoms: _187  and  _188
REMARK   83  A    between atoms: _187  and  _190
REMARK   84  A    between atoms: _190  and  _191
REMARK   85  A    between atoms: _191  and  _192
REMARK   86  A    between atoms: _194  and  _196
REMARK   87  A    between atoms: _196  and  _197
REMARK   88  A    between atoms: _196  and  _199
REMARK   89  A    between atoms: _199  and  _200
REMARK   90  A    between atoms: _200  and  _201
REMARK   91  A    between atoms: _201  and  _202
REMARK   92  A    between atoms: _202  and  _203
REMARK   93  A    between atoms: _207  and  _209
REMARK   94  A    between atoms: _209  and  _210
REMARK   95  A    between atoms: _209  and  _212
REMARK   96  A    between atoms: _212  and  _213
REMARK   97  A    between atoms: _216  and  _218
REMARK   98  A    between atoms: _218  and  _219
REMARK   99  A    between atoms: _218  and  _221
REMARK  100  A    between atoms: _221  and  _222
REMARK  101  A    between atoms: _227  and  _228
REMARK  102  A    between atoms: _230  and  _232
REMARK  103  A    between atoms: _232  and  _233
REMARK  104  A    between atoms: _232  and  _235
REMARK  105  A    between atoms: _235  and  _236
REMARK  106  A    between atoms: _236  and  _237
REMARK  107  A    between atoms: _240  and  _242
REMARK  108  A    between atoms: _242  and  _243
REMARK  109  A    between atoms: _242  and  _245
REMARK  110  A    between atoms: _245  and  _246
REMARK  111  A    between atoms: _252  and  _254
REMARK  112  A    between atoms: _254  and  _255
REMARK  113  A    between atoms: _254  and  _257
REMARK  114  A    between atoms: _257  and  _258
REMARK  115  A    between atoms: _263  and  _264
REMARK  116  A    between atoms: _266  and  _268
REMARK  117  A    between atoms: _268  and  _269
REMARK  118  A    between atoms: _268  and  _271
REMARK  119  A    between atoms: _271  and  _272
REMARK  120  A    between atoms: _275  and  _277
REMARK  121  A    between atoms: _277  and  _278
REMARK  122  A    between atoms: _277  and  _280
REMARK  123  A    between atoms: _283  and  _285
REMARK  124  A    between atoms: _285  and  _286
REMARK  125  A    between atoms: _288  and  _290
REMARK  126  A    between atoms: _290  and  _291
REMARK  127  A    between atoms: _290  and  _293
REMARK  128  A    between atoms: _293  and  _294
REMARK  129  A    between atoms: _294  and  _295
REMARK  130  A    between atoms: _298  and  _300
REMARK  131  A    between atoms: _300  and  _301
REMARK  132  A    between atoms: _300  and  _303
REMARK  133  A    between atoms: _306  and  _308
REMARK  134  A    between atoms: _308  and  _309
REMARK  135  A    between atoms: _308  and  _311
REMARK  136  A    between atoms: _311  and  _312
REMARK  137  A    between atoms: _317  and  _318
REMARK  138  A    between atoms: _320  and  _322
REMARK  139  A    between atoms: _322  and  _323
REMARK  140  A    between atoms: _322  and  _325
REMARK  141  A    between atoms: _325  and  _326
REMARK  142  A    between atoms: _329  and  _331
REMARK  143  A    between atoms: _331  and  _332
REMARK  144  A    between atoms: _334  and  _336
REMARK  145  A    between atoms: _336  and  _337
REMARK  146  A    between atoms: _339  and  _341
REMARK  147  A    between atoms: _341  and  _342
REMARK  148  A    between atoms: _341  and  _344
REMARK  149  A    between atoms: _344  and  _345
REMARK  150  A    between atoms: _345  and  _346
REMARK  151  A    between atoms: _349  and  _351
REMARK  152  A    between atoms: _351  and  _352
REMARK  153  A    between atoms: _351  and  _354
REMARK  154  A    between atoms: _354  and  _355
REMARK  155  A    between atoms: _358  and  _360
REMARK  156  A    between atoms: _360  and  _361
REMARK  157  A    between atoms: _360  and  _363
REMARK  158  A    between atoms: _363  and  _364
REMARK  159  A    between atoms: _367  and  _369
REMARK  160  A    between atoms: _369  and  _370
REMARK  161  A    between atoms: _369  and  _372
REMARK  162  A    between atoms: _372  and  _373
REMARK  163  A    between atoms: _373  and  _374
REMARK  164  A    between atoms: _377  and  _379
REMARK  165  A    between atoms: _379  and  _380
REMARK  166  A    between atoms: _379  and  _382
REMARK  167  A    between atoms: _382  and  _383
REMARK  168  A    between atoms: _388  and  _390
REMARK  169  A    between atoms: _390  and  _391
REMARK  170  A    between atoms: _390  and  _393
REMARK  171  A    between atoms: _393  and  _394
REMARK  172  A    between atoms: _397  and  _399
REMARK  173  A    between atoms: _399  and  _400
REMARK  174  A    between atoms: _399  and  _402
REMARK  175  A    between atoms: _402  and  _403
REMARK  176  A    between atoms: _406  and  _408
REMARK  177  A    between atoms: _408  and  _409
REMARK  178  A    between atoms: _408  and  _411
REMARK  179  A    between atoms: _411  and  _412
REMARK  180  A    between atoms: _415  and  _417
REMARK  181  A    between atoms: _417  and  _418
REMARK  182  A    between atoms: _417  and  _420
REMARK  183  A    between atoms: _420  and  _421
REMARK  184  A    between atoms: _421  and  _422
REMARK  185  A    between atoms: _425  and  _427
REMARK  186  A    between atoms: _427  and  _428
REMARK  187  A    between atoms: _427  and  _430
REMARK  188  A    between atoms: _430  and  _431
REMARK  189  A    between atoms: _431  and  _432
REMARK  190  A    between atoms: _432  and  _433
REMARK  191  A    between atoms: _442  and  _444
REMARK  192  A    between atoms: _444  and  _445
REMARK  193  A    between atoms: _444  and  _447
REMARK  194  A    between atoms: _447  and  _448
REMARK  195  A    between atoms: _451  and  _453
REMARK  196  A    between atoms: _453  and  _454
REMARK  197  A    between atoms: _453  and  _456
REMARK  198  A    between atoms: _456  and  _457
REMARK  199  A    between atoms: _460  and  _462
REMARK  200  A    between atoms: _462  and  _463
REMARK  201  A    between atoms: _462  and  _465
REMARK  202  A    between atoms: _465  and  _466
REMARK  203  A    between atoms: _469  and  _471
REMARK  204  A    between atoms: _471  and  _472
REMARK  205  A    between atoms: _471  and  _474
REMARK  206  A    between atoms: _474  and  _475
REMARK  207  A    between atoms: _481  and  _483
REMARK  208  A    between atoms: _483  and  _484
REMARK  209  A    between atoms: _486  and  _488
REMARK  210  A    between atoms: _488  and  _489
REMARK  211  A    between atoms: _488  and  _491
REMARK  212  A    between atoms: _491  and  _492
REMARK  213  A    between atoms: _495  and  _497
REMARK  214  A    between atoms: _497  and  _498
REMARK  215  A    between atoms: _497  and  _500
REMARK  216  A    between atoms: _500  and  _501
REMARK  217  A    between atoms: _503  and  _505
REMARK  218  A    between atoms: _505  and  _506
REMARK  219  A    between atoms: _505  and  _508
REMARK  220  A    between atoms: _508  and  _509
REMARK  221  A    between atoms: _515  and  _517
REMARK  222  A    between atoms: _517  and  _518
REMARK  223  A    between atoms: _517  and  _520
REMARK  224  A    between atoms: _520  and  _521
REMARK  225  A    between atoms: _521  and  _522
REMARK  226  A    between atoms: _522  and  _523
REMARK  227  A    between atoms: _523  and  _524
REMARK  228  A    between atoms: _528  and  _530
REMARK  229  A    between atoms: _530  and  _531
REMARK  230  A    between atoms: _530  and  _533
REMARK  231  A    between atoms: _533  and  _534
REMARK  232  A    between atoms: _534  and  _535
REMARK                            x       y       z     vdW  Elec       q    Type
REMARK                         _______ _______ _______ _____ _____    ______ ____
ROOT
ATOM      1  O   HOH     1       7.090  12.773  59.202  0.00  0.00    +0.000 OA
ENDROOT
TORSDOF 0
REMARK  Name = ../refined-set-2016/3v5t/3v5t_pocket.pdb
REMARK  232 active torsions:
REMARK  status: ('A' for Active; 'I' for Inactive)
REMARK    1  A    between atoms: _1  and  _3
REMARK    2  A    between atoms: _3  and  _4
REMARK    3  A    between atoms: _3  and  _6
REMARK    4  A    between atoms: _6  and  _7
REMARK    5  A    between atoms: _7  and  _8
REMARK    6  A    between atoms: _8  and  _9
REMARK    7  A    between atoms: _18  and  _20
REMARK    8  A    between atoms: _20  and  _21
REMARK    9  A    between atoms: _20  and  _23
REMARK   10  A    between atoms: _26  and  _28
REMARK   11  A    between atoms: _28  and  _29
REMARK   12  A    between atoms: _28  and  _31
REMARK   13  A    between atoms: _31  and  _32
REMARK   14  A    between atoms: _35  and  _37
REMARK   15  A    between atoms: _37  and  _38
REMARK   16  A    between atoms: _40  and  _42
REMARK   17  A    between atoms: _42  and  _43
REMARK   18  A    between atoms: _42  and  _45
REMARK   19  A    between atoms: _45  and  _46
REMARK   20  A    between atoms: _46  and  _47
REMARK   21  A    between atoms: _47  and  _48
REMARK   22  A    between atoms: _48  and  _49
REMARK   23  A    between atoms: _53  and  _55
REMARK   24  A    between atoms: _55  and  _56
REMARK   25  A    between atoms: _58  and  _60
REMARK   26  A    between atoms: _60  and  _61
REMARK   27  A    between atoms: _60  and  _63
REMARK   28  A    between atoms: _63  and  _64
REMARK   29  A    between atoms: _66  and  _68
REMARK   30  A    between atoms: _68  and  _69
REMARK   31  A    between atoms: _71  and  _73
REMARK   32  A    between atoms: _73  and  _74
REMARK   33  A    between atoms: _73  and  _76
REMARK   34  A    between atoms: _76  and  _77
REMARK   35  A    between atoms: _77  and  _78
REMARK   36  A    between atoms: _81  and  _83
REMARK   37  A    between atoms: _83  and  _84
REMARK   38  A    between atoms: _83  and  _86
REMARK   39  A    between atoms: _89  and  _91
REMARK   40  A    between atoms: _91  and  _92
REMARK   41  A    between atoms: _91  and  _94
REMARK   42  A    between atoms: _94  and  _95
REMARK   43  A    between atoms: _98  and  _100
REMARK   44  A    between atoms: _100  and  _101
REMARK   45  A    between atoms: _100  and  _103
REMARK   46  A    between atoms: _103  and  _104
REMARK   47  A    between atoms: _107  and  _109
REMARK   48  A    between atoms: _109  and  _110
REMARK   49  A    between atoms: _109  and  _112
REMARK   50  A    between atoms: _114  and  _116
REMARK   51  A    between atoms: _116  and  _117
REMARK   52  A    between atoms: _120  and  _122
REMARK   53  A    between atoms: _122  and  _123
REMARK   54  A    between atoms: _122  and  _125
REMARK   55  A    between atoms: _128  and  _130
REMARK   56  A    between atoms: _130  and  _131
REMARK   57  A    between atoms: _130  and  _133
REMARK   58  A    between atoms: _133  and  _134
REMARK   59  A    between atoms: _134  and  _135
REMARK   60  A    between atoms: _135  and  _136
REMARK   61  A    between atoms: _136  and  _137
REMARK   62  A    between atoms: _141  and  _143
REMARK   63  A    between atoms: _143  and  _144
REMARK   64  A    between atoms: _143  and  _146
REMARK   65  A    between atoms: _149  and  _151
REMARK   66  A    between atoms: _151  and  _152
REMARK   67  A    between atoms: _151  and  _154
REMARK   68  A    between atoms: _154  and  _155
REMARK   69  A    between atoms: _158  and  _160
REMARK   70  A    between atoms: _160  and  _161
REMARK   71  A    between atoms: _160  and  _163
REMARK   72  A    between atoms: _163  and  _164
REMARK   73  A    between atoms: _164  and  _165
REMARK   74  A    between atoms: _168  and  _170
REMARK   75  A    between atoms: _170  and  _171
REMARK   76  A    between atoms: _170  and  _173
REMARK   77  A    between atoms: _176  and  _178
REMARK   78  A    between atoms: _178  and  _179
REMARK   79  A    between atoms: _178  and  _181
REMARK   80  A    between atoms: _181  and  _182
REMARK   81  A    between atoms: _185  and  _187
REMARK   82  A    between atoms: _187  and  _188
REMARK   83  A    between atoms: _187  and  _190
REMARK   84  A    between atoms: _190  and  _191
REMARK   85  A    between atoms: _191  and  _192
REMARK   86  A    between atoms: _194  and  _196
REMARK   87  A    between atoms: _196  and  _197
REMARK   88  A    between atoms: _196  and  _199
REMARK   89  A    between atoms: _199  and  _200
REMARK   90  A    between atoms: _200  and  _201
REMARK   91  A    between atoms: _201  and  _202
REMARK   92  A    between atoms: _202  and  _203
REMARK   93  A    between atoms: _207  and  _209
REMARK   94  A    between atoms: _209  and  _210
REMARK   95  A    between atoms: _209  and  _212
REMARK   96  A    between atoms: _212  and  _213
REMARK   97  A    between atoms: _216  and  _218
REMARK   98  A    between atoms: _218  and  _219
REMARK   99  A    between atoms: _218  and  _221
REMARK  100  A    between atoms: _221  and  _222
REMARK  101  A    between atoms: _227  and  _228
REMARK  102  A    between atoms: _230  and  _232
REMARK  103  A    between atoms: _232  and  _233
REMARK  104  A    between atoms: _232  and  _235
REMARK  105  A    between atoms: _235  and  _236
REMARK  106  A    between atoms: _236  and  _237
REMARK  107  A    between atoms: _240  and  _242
REMARK  108  A    between atoms: _242  and  _243
REMARK  109  A    between atoms: _242  and  _245
REMARK  110  A    between atoms: _245  and  _246
REMARK  111  A    between atoms: _252  and  _254
REMARK  112  A    between atoms: _254  and  _255
REMARK  113  A    between atoms: _254  and  _257
REMARK  114  A    between atoms: _257  and  _258
REMARK  115  A    between atoms: _263  and  _264
REMARK  116  A    between atoms: _266  and  _268
REMARK  117  A    between atoms: _268  and  _269
REMARK  118  A    between atoms: _268  and  _271
REMARK  119  A    between atoms: _271  and  _272
REMARK  120  A    between atoms: _275  and  _277
REMARK  121  A    between atoms: _277  and  _278
REMARK  122  A    between atoms: _277  and  _280
REMARK  123  A    between atoms: _283  and  _285
REMARK  124  A    between atoms: _285  and  _286
REMARK  125  A    between atoms: _288  and  _290
REMARK  126  A    between atoms: _290  and  _291
REMARK  127  A    between atoms: _290  and  _293
REMARK  128  A    between atoms: _293  and  _294
REMARK  129  A    between atoms: _294  and  _295
REMARK  130  A    between atoms: _298  and  _300
REMARK  131  A    between atoms: _300  and  _301
REMARK  132  A    between atoms: _300  and  _303
REMARK  133  A    between atoms: _306  and  _308
REMARK  134  A    between atoms: _308  and  _309
REMARK  135  A    between atoms: _308  and  _311
REMARK  136  A    between atoms: _311  and  _312
REMARK  137  A    between atoms: _317  and  _318
REMARK  138  A    between atoms: _320  and  _322
REMARK  139  A    between atoms: _322  and  _323
REMARK  140  A    between atoms: _322  and  _325
REMARK  141  A    between atoms: _325  and  _326
REMARK  142  A    between atoms: _329  and  _331
REMARK  143  A    between atoms: _331  and  _332
REMARK  144  A    between atoms: _334  and  _336
REMARK  145  A    between atoms: _336  and  _337
REMARK  146  A    between atoms: _339  and  _341
REMARK  147  A    between atoms: _341  and  _342
REMARK  148  A    between atoms: _341  and  _344
REMARK  149  A    between atoms: _344  and  _345
REMARK  150  A    between atoms: _345  and  _346
REMARK  151  A    between atoms: _349  and  _351
REMARK  152  A    between atoms: _351  and  _352
REMARK  153  A    between atoms: _351  and  _354
REMARK  154  A    between atoms: _354  and  _355
REMARK  155  A    between atoms: _358  and  _360
REMARK  156  A    between atoms: _360  and  _361
REMARK  157  A    between atoms: _360  and  _363
REMARK  158  A    between atoms: _363  and  _364
REMARK  159  A    between atoms: _367  and  _369
REMARK  160  A    between atoms: _369  and  _370
REMARK  161  A    between atoms: _369  and  _372
REMARK  162  A    between atoms: _372  and  _373
REMARK  163  A    between atoms: _373  and  _374
REMARK  164  A    between atoms: _377  and  _379
REMARK  165  A    between atoms: _379  and  _380
REMARK  166  A    between atoms: _379  and  _382
REMARK  167  A    between atoms: _382  and  _383
REMARK  168  A    between atoms: _388  and  _390
REMARK  169  A    between atoms: _390  and  _391
REMARK  170  A    between atoms: _390  and  _393
REMARK  171  A    between atoms: _393  and  _394
REMARK  172  A    between atoms: _397  and  _399
REMARK  173  A    between atoms: _399  and  _400
REMARK  174  A    between atoms: _399  and  _402
REMARK  175  A    between atoms: _402  and  _403
REMARK  176  A    between atoms: _406  and  _408
REMARK  177  A    between atoms: _408  and  _409
REMARK  178  A    between atoms: _408  and  _411
REMARK  179  A    between atoms: _411  and  _412
REMARK  180  A    between atoms: _415  and  _417
REMARK  181  A    between atoms: _417  and  _418
REMARK  182  A    between atoms: _417  and  _420
REMARK  183  A    between atoms: _420  and  _421
REMARK  184  A    between atoms: _421  and  _422
REMARK  185  A    between atoms: _425  and  _427
REMARK  186  A    between atoms: _427  and  _428
REMARK  187  A    between atoms: _427  and  _430
REMARK  188  A    between atoms: _430  and  _431
REMARK  189  A    between atoms: _431  and  _432
REMARK  190  A    between atoms: _432  and  _433
REMARK  191  A    between atoms: _442  and  _444
REMARK  192  A    between atoms: _444  and  _445
REMARK  193  A    between atoms: _444  and  _447
REMARK  194  A    between atoms: _447  and  _448
REMARK  195  A    between atoms: _451  and  _453
REMARK  196  A    between atoms: _453  and  _454
REMARK  197  A    between atoms: _453  and  _456
REMARK  198  A    between atoms: _456  and  _457
REMARK  199  A    between atoms: _460  and  _462
REMARK  200  A    between atoms: _462  and  _463
REMARK  201  A    between atoms: _462  and  _465
REMARK  202  A    between atoms: _465  and  _466
REMARK  203  A    between atoms: _469  and  _471
REMARK  204  A    between atoms: _471  and  _472
REMARK  205  A    between atoms: _471  and  _474
REMARK  206  A    between atoms: _474  and  _475
REMARK  207  A    between atoms: _481  and  _483
REMARK  208  A    between atoms: _483  and  _484
REMARK  209  A    between atoms: _486  and  _488
REMARK  210  A    between atoms: _488  and  _489
REMARK  211  A    between atoms: _488  and  _491
REMARK  212  A    between atoms: _491  and  _492
REMARK  213  A    between atoms: _495  and  _497
REMARK  214  A    between atoms: _497  and  _498
REMARK  215  A    between atoms: _497  and  _500
REMARK  216  A    between atoms: _500  and  _501
REMARK  217  A    between atoms: _503  and  _505
REMARK  218  A    between atoms: _505  and  _506
REMARK  219  A    between atoms: _505  and  _508
REMARK  220  A    between atoms: _508  and  _509
REMARK  221  A    between atoms: _515  and  _517
REMARK  222  A    between atoms: _517  and  _518
REMARK  223  A    between atoms: _517  and  _520
REMARK  224  A    between atoms: _520  and  _521
REMARK  225  A    between atoms: _521  and  _522
REMARK  226  A    between atoms: _522  and  _523
REMARK  227  A    between atoms: _523  and  _524
REMARK  228  A    between atoms: _528  and  _530
REMARK  229  A    between atoms: _530  and  _531
REMARK  230  A    between atoms: _530  and  _533
REMARK  231  A    between atoms: _533  and  _534
REMARK  232  A    between atoms: _534  and  _535
REMARK                            x       y       z     vdW  Elec       q    Type
REMARK                         _______ _______ _______ _____ _____    ______ ____
ROOT
ATOM      1  O   HOH     1       9.095  13.324  62.306  0.00  0.00    +0.000 OA
ENDROOT
TORSDOF 0
REMARK  Name = ../refined-set-2016/3v5t/3v5t_pocket.pdb
REMARK  232 active torsions:
REMARK  status: ('A' for Active; 'I' for Inactive)
REMARK    1  A    between atoms: _1  and  _3
REMARK    2  A    between atoms: _3  and  _4
REMARK    3  A    between atoms: _3  and  _6
REMARK    4  A    between atoms: _6  and  _7
REMARK    5  A    between atoms: _7  and  _8
REMARK    6  A    between atoms: _8  and  _9
REMARK    7  A    between atoms: _18  and  _20
REMARK    8  A    between atoms: _20  and  _21
REMARK    9  A    between atoms: _20  and  _23
REMARK   10  A    between atoms: _26  and  _28
REMARK   11  A    between atoms: _28  and  _29
REMARK   12  A    between atoms: _28  and  _31
REMARK   13  A    between atoms: _31  and  _32
REMARK   14  A    between atoms: _35  and  _37
REMARK   15  A    between atoms: _37  and  _38
REMARK   16  A    between atoms: _40  and  _42
REMARK   17  A    between atoms: _42  and  _43
REMARK   18  A    between atoms: _42  and  _45
REMARK   19  A    between atoms: _45  and  _46
REMARK   20  A    between atoms: _46  and  _47
REMARK   21  A    between atoms: _47  and  _48
REMARK   22  A    between atoms: _48  and  _49
REMARK   23  A    between atoms: _53  and  _55
REMARK   24  A    between atoms: _55  and  _56
REMARK   25  A    between atoms: _58  and  _60
REMARK   26  A    between atoms: _60  and  _61
REMARK   27  A    between atoms: _60  and  _63
REMARK   28  A    between atoms: _63  and  _64
REMARK   29  A    between atoms: _66  and  _68
REMARK   30  A    between atoms: _68  and  _69
REMARK   31  A    between atoms: _71  and  _73
REMARK   32  A    between atoms: _73  and  _74
REMARK   33  A    between atoms: _73  and  _76
REMARK   34  A    between atoms: _76  and  _77
REMARK   35  A    between atoms: _77  and  _78
REMARK   36  A    between atoms: _81  and  _83
REMARK   37  A    between atoms: _83  and  _84
REMARK   38  A    between atoms: _83  and  _86
REMARK   39  A    between atoms: _89  and  _91
REMARK   40  A    between atoms: _91  and  _92
REMARK   41  A    between atoms: _91  and  _94
REMARK   42  A    between atoms: _94  and  _95
REMARK   43  A    between atoms: _98  and  _100
REMARK   44  A    between atoms: _100  and  _101
REMARK   45  A    between atoms: _100  and  _103
REMARK   46  A    between atoms: _103  and  _104
REMARK   47  A    between atoms: _107  and  _109
REMARK   48  A    between atoms: _109  and  _110
REMARK   49  A    between atoms: _109  and  _112
REMARK   50  A    between atoms: _114  and  _116
REMARK   51  A    between atoms: _116  and  _117
REMARK   52  A    between atoms: _120  and  _122
REMARK   53  A    between atoms: _122  and  _123
REMARK   54  A    between atoms: _122  and  _125
REMARK   55  A    between atoms: _128  and  _130
REMARK   56  A    between atoms: _130  and  _131
REMARK   57  A    between atoms: _130  and  _133
REMARK   58  A    between atoms: _133  and  _134
REMARK   59  A    between atoms: _134  and  _135
REMARK   60  A    between atoms: _135  and  _136
REMARK   61  A    between atoms: _136  and  _137
REMARK   62  A    between atoms: _141  and  _143
REMARK   63  A    between atoms: _143  and  _144
REMARK   64  A    between atoms: _143  and  _146
REMARK   65  A    between atoms: _149  and  _151
REMARK   66  A    between atoms: _151  and  _152
REMARK   67  A    between atoms: _151  and  _154
REMARK   68  A    between atoms: _154  and  _155
REMARK   69  A    between atoms: _158  and  _160
REMARK   70  A    between atoms: _160  and  _161
REMARK   71  A    between atoms: _160  and  _163
REMARK   72  A    between atoms: _163  and  _164
REMARK   73  A    between atoms: _164  and  _165
REMARK   74  A    between atoms: _168  and  _170
REMARK   75  A    between atoms: _170  and  _171
REMARK   76  A    between atoms: _170  and  _173
REMARK   77  A    between atoms: _176  and  _178
REMARK   78  A    between atoms: _178  and  _179
REMARK   79  A    between atoms: _178  and  _181
REMARK   80  A    between atoms: _181  and  _182
REMARK   81  A    between atoms: _185  and  _187
REMARK   82  A    between atoms: _187  and  _188
REMARK   83  A    between atoms: _187  and  _190
REMARK   84  A    between atoms: _190  and  _191
REMARK   85  A    between atoms: _191  and  _192
REMARK   86  A    between atoms: _194  and  _196
REMARK   87  A    between atoms: _196  and  _197
REMARK   88  A    between atoms: _196  and  _199
REMARK   89  A    between atoms: _199  and  _200
REMARK   90  A    between atoms: _200  and  _201
REMARK   91  A    between atoms: _201  and  _202
REMARK   92  A    between atoms: _202  and  _203
REMARK   93  A    between atoms: _207  and  _209
REMARK   94  A    between atoms: _209  and  _210
REMARK   95  A    between atoms: _209  and  _212
REMARK   96  A    between atoms: _212  and  _213
REMARK   97  A    between atoms: _216  and  _218
REMARK   98  A    between atoms: _218  and  _219
REMARK   99  A    between atoms: _218  and  _221
REMARK  100  A    between atoms: _221  and  _222
REMARK  101  A    between atoms: _227  and  _228
REMARK  102  A    between atoms: _230  and  _232
REMARK  103  A    between atoms: _232  and  _233
REMARK  104  A    between atoms: _232  and  _235
REMARK  105  A    between atoms: _235  and  _236
REMARK  106  A    between atoms: _236  and  _237
REMARK  107  A    between atoms: _240  and  _242
REMARK  108  A    between atoms: _242  and  _243
REMARK  109  A    between atoms: _242  and  _245
REMARK  110  A    between atoms: _245  and  _246
REMARK  111  A    between atoms: _252  and  _254
REMARK  112  A    between atoms: _254  and  _255
REMARK  113  A    between atoms: _254  and  _257
REMARK  114  A    between atoms: _257  and  _258
REMARK  115  A    between atoms: _263  and  _264
REMARK  116  A    between atoms: _266  and  _268
REMARK  117  A    between atoms: _268  and  _269
REMARK  118  A    between atoms: _268  and  _271
REMARK  119  A    between atoms: _271  and  _272
REMARK  120  A    between atoms: _275  and  _277
REMARK  121  A    between atoms: _277  and  _278
REMARK  122  A    between atoms: _277  and  _280
REMARK  123  A    between atoms: _283  and  _285
REMARK  124  A    between atoms: _285  and  _286
REMARK  125  A    between atoms: _288  and  _290
REMARK  126  A    between atoms: _290  and  _291
REMARK  127  A    between atoms: _290  and  _293
REMARK  128  A    between atoms: _293  and  _294
REMARK  129  A    between atoms: _294  and  _295
REMARK  130  A    between atoms: _298  and  _300
REMARK  131  A    between atoms: _300  and  _301
REMARK  132  A    between atoms: _300  and  _303
REMARK  133  A    between atoms: _306  and  _308
REMARK  134  A    between atoms: _308  and  _309
REMARK  135  A    between atoms: _308  and  _311
REMARK  136  A    between atoms: _311  and  _312
REMARK  137  A    between atoms: _317  and  _318
REMARK  138  A    between atoms: _320  and  _322
REMARK  139  A    between atoms: _322  and  _323
REMARK  140  A    between atoms: _322  and  _325
REMARK  141  A    between atoms: _325  and  _326
REMARK  142  A    between atoms: _329  and  _331
REMARK  143  A    between atoms: _331  and  _332
REMARK  144  A    between atoms: _334  and  _336
REMARK  145  A    between atoms: _336  and  _337
REMARK  146  A    between atoms: _339  and  _341
REMARK  147  A    between atoms: _341  and  _342
REMARK  148  A    between atoms: _341  and  _344
REMARK  149  A    between atoms: _344  and  _345
REMARK  150  A    between atoms: _345  and  _346
REMARK  151  A    between atoms: _349  and  _351
REMARK  152  A    between atoms: _351  and  _352
REMARK  153  A    between atoms: _351  and  _354
REMARK  154  A    between atoms: _354  and  _355
REMARK  155  A    between atoms: _358  and  _360
REMARK  156  A    between atoms: _360  and  _361
REMARK  157  A    between atoms: _360  and  _363
REMARK  158  A    between atoms: _363  and  _364
REMARK  159  A    between atoms: _367  and  _369
REMARK  160  A    between atoms: _369  and  _370
REMARK  161  A    between atoms: _369  and  _372
REMARK  162  A    between atoms: _372  and  _373
REMARK  163  A    between atoms: _373  and  _374
REMARK  164  A    between atoms: _377  and  _379
REMARK  165  A    between atoms: _379  and  _380
REMARK  166  A    between atoms: _379  and  _382
REMARK  167  A    between atoms: _382  and  _383
REMARK  168  A    between atoms: _388  and  _390
REMARK  169  A    between atoms: _390  and  _391
REMARK  170  A    between atoms: _390  and  _393
REMARK  171  A    between atoms: _393  and  _394
REMARK  172  A    between atoms: _397  and  _399
REMARK  173  A    between atoms: _399  and  _400
REMARK  174  A    between atoms: _399  and  _402
REMARK  175  A    between atoms: _402  and  _403
REMARK  176  A    between atoms: _406  and  _408
REMARK  177  A    between atoms: _408  and  _409
REMARK  178  A    between atoms: _408  and  _411
REMARK  179  A    between atoms: _411  and  _412
REMARK  180  A    between atoms: _415  and  _417
REMARK  181  A    between atoms: _417  and  _418
REMARK  182  A    between atoms: _417  and  _420
REMARK  183  A    between atoms: _420  and  _421
REMARK  184  A    between atoms: _421  and  _422
REMARK  185  A    between atoms: _425  and  _427
REMARK  186  A    between atoms: _427  and  _428
REMARK  187  A    between atoms: _427  and  _430
REMARK  188  A    between atoms: _430  and  _431
REMARK  189  A    between atoms: _431  and  _432
REMARK  190  A    between atoms: _432  and  _433
REMARK  191  A    between atoms: _442  and  _444
REMARK  192  A    between atoms: _444  and  _445
REMARK  193  A    between atoms: _444  and  _447
REMARK  194  A    between atoms: _447  and  _448
REMARK  195  A    between atoms: _451  and  _453
REMARK  196  A    between atoms: _453  and  _454
REMARK  197  A    between atoms: _453  and  _456
REMARK  198  A    between atoms: _456  and  _457
REMARK  199  A    between atoms: _460  and  _462
REMARK  200  A    between atoms: _462  and  _463
REMARK  201  A    between atoms: _462  and  _465
REMARK  202  A    between atoms: _465  and  _466
REMARK  203  A    between atoms: _469  and  _471
REMARK  204  A    between atoms: _471  and  _472
REMARK  205  A    between atoms: _471  and  _474
REMARK  206  A    between atoms: _474  and  _475
REMARK  207  A    between atoms: _481  and  _483
REMARK  208  A    between atoms: _483  and  _484
REMARK  209  A    between atoms: _486  and  _488
REMARK  210  A    between atoms: _488  and  _489
REMARK  211  A    between atoms: _488  and  _491
REMARK  212  A    between atoms: _491  and  _492
REMARK  213  A    between atoms: _495  and  _497
REMARK  214  A    between atoms: _497  and  _498
REMARK  215  A    between atoms: _497  and  _500
REMARK  216  A    between atoms: _500  and  _501
REMARK  217  A    between atoms: _503  and  _505
REMARK  218  A    between atoms: _505  and  _506
REMARK  219  A    between atoms: _505  and  _508
REMARK  220  A    between atoms: _508  and  _509
REMARK  221  A    between atoms: _515  and  _517
REMARK  222  A    between atoms: _517  and  _518
REMARK  223  A    between atoms: _517  and  _520
REMARK  224  A    between atoms: _520  and  _521
REMARK  225  A    between atoms: _521  and  _522
REMARK  226  A    between atoms: _522  and  _523
REMARK  227  A    between atoms: _523  and  _524
REMARK  228  A    between atoms: _528  and  _530
REMARK  229  A    between atoms: _530  and  _531
REMARK  230  A    between atoms: _530  and  _533
REMARK  231  A    between atoms: _533  and  _534
REMARK  232  A    between atoms: _534  and  _535
REMARK                            x       y       z     vdW  Elec       q    Type
REMARK                         _______ _______ _______ _____ _____    ______ ____
ROOT
ATOM      1  O   HOH     1       9.397  21.042  59.067  0.00  0.00    +0.000 OA
ENDROOT
TORSDOF 0
REMARK  Name = ../refined-set-2016/3v5t/3v5t_pocket.pdb
REMARK  232 active torsions:
REMARK  status: ('A' for Active; 'I' for Inactive)
REMARK    1  A    between atoms: _1  and  _3
REMARK    2  A    between atoms: _3  and  _4
REMARK    3  A    between atoms: _3  and  _6
REMARK    4  A    between atoms: _6  and  _7
REMARK    5  A    between atoms: _7  and  _8
REMARK    6  A    between atoms: _8  and  _9
REMARK    7  A    between atoms: _18  and  _20
REMARK    8  A    between atoms: _20  and  _21
REMARK    9  A    between atoms: _20  and  _23
REMARK   10  A    between atoms: _26  and  _28
REMARK   11  A    between atoms: _28  and  _29
REMARK   12  A    between atoms: _28  and  _31
REMARK   13  A    between atoms: _31  and  _32
REMARK   14  A    between atoms: _35  and  _37
REMARK   15  A    between atoms: _37  and  _38
REMARK   16  A    between atoms: _40  and  _42
REMARK   17  A    between atoms: _42  and  _43
REMARK   18  A    between atoms: _42  and  _45
REMARK   19  A    between atoms: _45  and  _46
REMARK   20  A    between atoms: _46  and  _47
REMARK   21  A    between atoms: _47  and  _48
REMARK   22  A    between atoms: _48  and  _49
REMARK   23  A    between atoms: _53  and  _55
REMARK   24  A    between atoms: _55  and  _56
REMARK   25  A    between atoms: _58  and  _60
REMARK   26  A    between atoms: _60  and  _61
REMARK   27  A    between atoms: _60  and  _63
REMARK   28  A    between atoms: _63  and  _64
REMARK   29  A    between atoms: _66  and  _68
REMARK   30  A    between atoms: _68  and  _69
REMARK   31  A    between atoms: _71  and  _73
REMARK   32  A    between atoms: _73  and  _74
REMARK   33  A    between atoms: _73  and  _76
REMARK   34  A    between atoms: _76  and  _77
REMARK   35  A    between atoms: _77  and  _78
REMARK   36  A    between atoms: _81  and  _83
REMARK   37  A    between atoms: _83  and  _84
REMARK   38  A    between atoms: _83  and  _86
REMARK   39  A    between atoms: _89  and  _91
REMARK   40  A    between atoms: _91  and  _92
REMARK   41  A    between atoms: _91  and  _94
REMARK   42  A    between atoms: _94  and  _95
REMARK   43  A    between atoms: _98  and  _100
REMARK   44  A    between atoms: _100  and  _101
REMARK   45  A    between atoms: _100  and  _103
REMARK   46  A    between atoms: _103  and  _104
REMARK   47  A    between atoms: _107  and  _109
REMARK   48  A    between atoms: _109  and  _110
REMARK   49  A    between atoms: _109  and  _112
REMARK   50  A    between atoms: _114  and  _116
REMARK   51  A    between atoms: _116  and  _117
REMARK   52  A    between atoms: _120  and  _122
REMARK   53  A    between atoms: _122  and  _123
REMARK   54  A    between atoms: _122  and  _125
REMARK   55  A    between atoms: _128  and  _130
REMARK   56  A    between atoms: _130  and  _131
REMARK   57  A    between atoms: _130  and  _133
REMARK   58  A    between atoms: _133  and  _134
REMARK   59  A    between atoms: _134  and  _135
REMARK   60  A    between atoms: _135  and  _136
REMARK   61  A    between atoms: _136  and  _137
REMARK   62  A    between atoms: _141  and  _143
REMARK   63  A    between atoms: _143  and  _144
REMARK   64  A    between atoms: _143  and  _146
REMARK   65  A    between atoms: _149  and  _151
REMARK   66  A    between atoms: _151  and  _152
REMARK   67  A    between atoms: _151  and  _154
REMARK   68  A    between atoms: _154  and  _155
REMARK   69  A    between atoms: _158  and  _160
REMARK   70  A    between atoms: _160  and  _161
REMARK   71  A    between atoms: _160  and  _163
REMARK   72  A    between atoms: _163  and  _164
REMARK   73  A    between atoms: _164  and  _165
REMARK   74  A    between atoms: _168  and  _170
REMARK   75  A    between atoms: _170  and  _171
REMARK   76  A    between atoms: _170  and  _173
REMARK   77  A    between atoms: _176  and  _178
REMARK   78  A    between atoms: _178  and  _179
REMARK   79  A    between atoms: _178  and  _181
REMARK   80  A    between atoms: _181  and  _182
REMARK   81  A    between atoms: _185  and  _187
REMARK   82  A    between atoms: _187  and  _188
REMARK   83  A    between atoms: _187  and  _190
REMARK   84  A    between atoms: _190  and  _191
REMARK   85  A    between atoms: _191  and  _192
REMARK   86  A    between atoms: _194  and  _196
REMARK   87  A    between atoms: _196  and  _197
REMARK   88  A    between atoms: _196  and  _199
REMARK   89  A    between atoms: _199  and  _200
REMARK   90  A    between atoms: _200  and  _201
REMARK   91  A    between atoms: _201  and  _202
REMARK   92  A    between atoms: _202  and  _203
REMARK   93  A    between atoms: _207  and  _209
REMARK   94  A    between atoms: _209  and  _210
REMARK   95  A    between atoms: _209  and  _212
REMARK   96  A    between atoms: _212  and  _213
REMARK   97  A    between atoms: _216  and  _218
REMARK   98  A    between atoms: _218  and  _219
REMARK   99  A    between atoms: _218  and  _221
REMARK  100  A    between atoms: _221  and  _222
REMARK  101  A    between atoms: _227  and  _228
REMARK  102  A    between atoms: _230  and  _232
REMARK  103  A    between atoms: _232  and  _233
REMARK  104  A    between atoms: _232  and  _235
REMARK  105  A    between atoms: _235  and  _236
REMARK  106  A    between atoms: _236  and  _237
REMARK  107  A    between atoms: _240  and  _242
REMARK  108  A    between atoms: _242  and  _243
REMARK  109  A    between atoms: _242  and  _245
REMARK  110  A    between atoms: _245  and  _246
REMARK  111  A    between atoms: _252  and  _254
REMARK  112  A    between atoms: _254  and  _255
REMARK  113  A    between atoms: _254  and  _257
REMARK  114  A    between atoms: _257  and  _258
REMARK  115  A    between atoms: _263  and  _264
REMARK  116  A    between atoms: _266  and  _268
REMARK  117  A    between atoms: _268  and  _269
REMARK  118  A    between atoms: _268  and  _271
REMARK  119  A    between atoms: _271  and  _272
REMARK  120  A    between atoms: _275  and  _277
REMARK  121  A    between atoms: _277  and  _278
REMARK  122  A    between atoms: _277  and  _280
REMARK  123  A    between atoms: _283  and  _285
REMARK  124  A    between atoms: _285  and  _286
REMARK  125  A    between atoms: _288  and  _290
REMARK  126  A    between atoms: _290  and  _291
REMARK  127  A    between atoms: _290  and  _293
REMARK  128  A    between atoms: _293  and  _294
REMARK  129  A    between atoms: _294  and  _295
REMARK  130  A    between atoms: _298  and  _300
REMARK  131  A    between atoms: _300  and  _301
REMARK  132  A    between atoms: _300  and  _303
REMARK  133  A    between atoms: _306  and  _308
REMARK  134  A    between atoms: _308  and  _309
REMARK  135  A    between atoms: _308  and  _311
REMARK  136  A    between atoms: _311  and  _312
REMARK  137  A    between atoms: _317  and  _318
REMARK  138  A    between atoms: _320  and  _322
REMARK  139  A    between atoms: _322  and  _323
REMARK  140  A    between atoms: _322  and  _325
REMARK  141  A    between atoms: _325  and  _326
REMARK  142  A    between atoms: _329  and  _331
REMARK  143  A    between atoms: _331  and  _332
REMARK  144  A    between atoms: _334  and  _336
REMARK  145  A    between atoms: _336  and  _337
REMARK  146  A    between atoms: _339  and  _341
REMARK  147  A    between atoms: _341  and  _342
REMARK  148  A    between atoms: _341  and  _344
REMARK  149  A    between atoms: _344  and  _345
REMARK  150  A    between atoms: _345  and  _346
REMARK  151  A    between atoms: _349  and  _351
REMARK  152  A    between atoms: _351  and  _352
REMARK  153  A    between atoms: _351  and  _354
REMARK  154  A    between atoms: _354  and  _355
REMARK  155  A    between atoms: _358  and  _360
REMARK  156  A    between atoms: _360  and  _361
REMARK  157  A    between atoms: _360  and  _363
REMARK  158  A    between atoms: _363  and  _364
REMARK  159  A    between atoms: _367  and  _369
REMARK  160  A    between atoms: _369  and  _370
REMARK  161  A    between atoms: _369  and  _372
REMARK  162  A    between atoms: _372  and  _373
REMARK  163  A    between atoms: _373  and  _374
REMARK  164  A    between atoms: _377  and  _379
REMARK  165  A    between atoms: _379  and  _380
REMARK  166  A    between atoms: _379  and  _382
REMARK  167  A    between atoms: _382  and  _383
REMARK  168  A    between atoms: _388  and  _390
REMARK  169  A    between atoms: _390  and  _391
REMARK  170  A    between atoms: _390  and  _393
REMARK  171  A    between atoms: _393  and  _394
REMARK  172  A    between atoms: _397  and  _399
REMARK  173  A    between atoms: _399  and  _400
REMARK  174  A    between atoms: _399  and  _402
REMARK  175  A    between atoms: _402  and  _403
REMARK  176  A    between atoms: _406  and  _408
REMARK  177  A    between atoms: _408  and  _409
REMARK  178  A    between atoms: _408  and  _411
REMARK  179  A    between atoms: _411  and  _412
REMARK  180  A    between atoms: _415  and  _417
REMARK  181  A    between atoms: _417  and  _418
REMARK  182  A    between atoms: _417  and  _420
REMARK  183  A    between atoms: _420  and  _421
REMARK  184  A    between atoms: _421  and  _422
REMARK  185  A    between atoms: _425  and  _427
REMARK  186  A    between atoms: _427  and  _428
REMARK  187  A    between atoms: _427  and  _430
REMARK  188  A    between atoms: _430  and  _431
REMARK  189  A    between atoms: _431  and  _432
REMARK  190  A    between atoms: _432  and  _433
REMARK  191  A    between atoms: _442  and  _444
REMARK  192  A    between atoms: _444  and  _445
REMARK  193  A    between atoms: _444  and  _447
REMARK  194  A    between atoms: _447  and  _448
REMARK  195  A    between atoms: _451  and  _453
REMARK  196  A    between atoms: _453  and  _454
REMARK  197  A    between atoms: _453  and  _456
REMARK  198  A    between atoms: _456  and  _457
REMARK  199  A    between atoms: _460  and  _462
REMARK  200  A    between atoms: _462  and  _463
REMARK  201  A    between atoms: _462  and  _465
REMARK  202  A    between atoms: _465  and  _466
REMARK  203  A    between atoms: _469  and  _471
REMARK  204  A    between atoms: _471  and  _472
REMARK  205  A    between atoms: _471  and  _474
REMARK  206  A    between atoms: _474  and  _475
REMARK  207  A    between atoms: _481  and  _483
REMARK  208  A    between atoms: _483  and  _484
REMARK  209  A    between atoms: _486  and  _488
REMARK  210  A    between atoms: _488  and  _489
REMARK  211  A    between atoms: _488  and  _491
REMARK  212  A    between atoms: _491  and  _492
REMARK  213  A    between atoms: _495  and  _497
REMARK  214  A    between atoms: _497  and  _498
REMARK  215  A    between atoms: _497  and  _500
REMARK  216  A    between atoms: _500  and  _501
REMARK  217  A    between atoms: _503  and  _505
REMARK  218  A    between atoms: _505  and  _506
REMARK  219  A    between atoms: _505  and  _508
REMARK  220  A    between atoms: _508  and  _509
REMARK  221  A    between atoms: _515  and  _517
REMARK  222  A    between atoms: _517  and  _518
REMARK  223  A    between atoms: _517  and  _520
REMARK  224  A    between atoms: _520  and  _521
REMARK  225  A    between atoms: _521  and  _522
REMARK  226  A    between atoms: _522  and  _523
REMARK  227  A    between atoms: _523  and  _524
REMARK  228  A    between atoms: _528  and  _530
REMARK  229  A    between atoms: _530  and  _531
REMARK  230  A    between atoms: _530  and  _533
REMARK  231  A    between atoms: _533  and  _534
REMARK  232  A    between atoms: _534  and  _535
REMARK                            x       y       z     vdW  Elec       q    Type
REMARK                         _______ _______ _______ _____ _____    ______ ____
ROOT
ATOM      1  O   HOH     1       5.639  10.262  63.088  0.00  0.00    +0.000 OA
ENDROOT
TORSDOF 0
REMARK  Name = ../refined-set-2016/3v5t/3v5t_pocket.pdb
REMARK  232 active torsions:
REMARK  status: ('A' for Active; 'I' for Inactive)
REMARK    1  A    between atoms: _1  and  _3
REMARK    2  A    between atoms: _3  and  _4
REMARK    3  A    between atoms: _3  and  _6
REMARK    4  A    between atoms: _6  and  _7
REMARK    5  A    between atoms: _7  and  _8
REMARK    6  A    between atoms: _8  and  _9
REMARK    7  A    between atoms: _18  and  _20
REMARK    8  A    between atoms: _20  and  _21
REMARK    9  A    between atoms: _20  and  _23
REMARK   10  A    between atoms: _26  and  _28
REMARK   11  A    between atoms: _28  and  _29
REMARK   12  A    between atoms: _28  and  _31
REMARK   13  A    between atoms: _31  and  _32
REMARK   14  A    between atoms: _35  and  _37
REMARK   15  A    between atoms: _37  and  _38
REMARK   16  A    between atoms: _40  and  _42
REMARK   17  A    between atoms: _42  and  _43
REMARK   18  A    between atoms: _42  and  _45
REMARK   19  A    between atoms: _45  and  _46
REMARK   20  A    between atoms: _46  and  _47
REMARK   21  A    between atoms: _47  and  _48
REMARK   22  A    between atoms: _48  and  _49
REMARK   23  A    between atoms: _53  and  _55
REMARK   24  A    between atoms: _55  and  _56
REMARK   25  A    between atoms: _58  and  _60
REMARK   26  A    between atoms: _60  and  _61
REMARK   27  A    between atoms: _60  and  _63
REMARK   28  A    between atoms: _63  and  _64
REMARK   29  A    between atoms: _66  and  _68
REMARK   30  A    between atoms: _68  and  _69
REMARK   31  A    between atoms: _71  and  _73
REMARK   32  A    between atoms: _73  and  _74
REMARK   33  A    between atoms: _73  and  _76
REMARK   34  A    between atoms: _76  and  _77
REMARK   35  A    between atoms: _77  and  _78
REMARK   36  A    between atoms: _81  and  _83
REMARK   37  A    between atoms: _83  and  _84
REMARK   38  A    between atoms: _83  and  _86
REMARK   39  A    between atoms: _89  and  _91
REMARK   40  A    between atoms: _91  and  _92
REMARK   41  A    between atoms: _91  and  _94
REMARK   42  A    between atoms: _94  and  _95
REMARK   43  A    between atoms: _98  and  _100
REMARK   44  A    between atoms: _100  and  _101
REMARK   45  A    between atoms: _100  and  _103
REMARK   46  A    between atoms: _103  and  _104
REMARK   47  A    between atoms: _107  and  _109
REMARK   48  A    between atoms: _109  and  _110
REMARK   49  A    between atoms: _109  and  _112
REMARK   50  A    between atoms: _114  and  _116
REMARK   51  A    between atoms: _116  and  _117
REMARK   52  A    between atoms: _120  and  _122
REMARK   53  A    between atoms: _122  and  _123
REMARK   54  A    between atoms: _122  and  _125
REMARK   55  A    between atoms: _128  and  _130
REMARK   56  A    between atoms: _130  and  _131
REMARK   57  A    between atoms: _130  and  _133
REMARK   58  A    between atoms: _133  and  _134
REMARK   59  A    between atoms: _134  and  _135
REMARK   60  A    between atoms: _135  and  _136
REMARK   61  A    between atoms: _136  and  _137
REMARK   62  A    between atoms: _141  and  _143
REMARK   63  A    between atoms: _143  and  _144
REMARK   64  A    between atoms: _143  and  _146
REMARK   65  A    between atoms: _149  and  _151
REMARK   66  A    between atoms: _151  and  _152
REMARK   67  A    between atoms: _151  and  _154
REMARK   68  A    between atoms: _154  and  _155
REMARK   69  A    between atoms: _158  and  _160
REMARK   70  A    between atoms: _160  and  _161
REMARK   71  A    between atoms: _160  and  _163
REMARK   72  A    between atoms: _163  and  _164
REMARK   73  A    between atoms: _164  and  _165
REMARK   74  A    between atoms: _168  and  _170
REMARK   75  A    between atoms: _170  and  _171
REMARK   76  A    between atoms: _170  and  _173
REMARK   77  A    between atoms: _176  and  _178
REMARK   78  A    between atoms: _178  and  _179
REMARK   79  A    between atoms: _178  and  _181
REMARK   80  A    between atoms: _181  and  _182
REMARK   81  A    between atoms: _185  and  _187
REMARK   82  A    between atoms: _187  and  _188
REMARK   83  A    between atoms: _187  and  _190
REMARK   84  A    between atoms: _190  and  _191
REMARK   85  A    between atoms: _191  and  _192
REMARK   86  A    between atoms: _194  and  _196
REMARK   87  A    between atoms: _196  and  _197
REMARK   88  A    between atoms: _196  and  _199
REMARK   89  A    between atoms: _199  and  _200
REMARK   90  A    between atoms: _200  and  _201
REMARK   91  A    between atoms: _201  and  _202
REMARK   92  A    between atoms: _202  and  _203
REMARK   93  A    between atoms: _207  and  _209
REMARK   94  A    between atoms: _209  and  _210
REMARK   95  A    between atoms: _209  and  _212
REMARK   96  A    between atoms: _212  and  _213
REMARK   97  A    between atoms: _216  and  _218
REMARK   98  A    between atoms: _218  and  _219
REMARK   99  A    between atoms: _218  and  _221
REMARK  100  A    between atoms: _221  and  _222
REMARK  101  A    between atoms: _227  and  _228
REMARK  102  A    between atoms: _230  and  _232
REMARK  103  A    between atoms: _232  and  _233
REMARK  104  A    between atoms: _232  and  _235
REMARK  105  A    between atoms: _235  and  _236
REMARK  106  A    between atoms: _236  and  _237
REMARK  107  A    between atoms: _240  and  _242
REMARK  108  A    between atoms: _242  and  _243
REMARK  109  A    between atoms: _242  and  _245
REMARK  110  A    between atoms: _245  and  _246
REMARK  111  A    between atoms: _252  and  _254
REMARK  112  A    between atoms: _254  and  _255
REMARK  113  A    between atoms: _254  and  _257
REMARK  114  A    between atoms: _257  and  _258
REMARK  115  A    between atoms: _263  and  _264
REMARK  116  A    between atoms: _266  and  _268
REMARK  117  A    between atoms: _268  and  _269
REMARK  118  A    between atoms: _268  and  _271
REMARK  119  A    between atoms: _271  and  _272
REMARK  120  A    between atoms: _275  and  _277
REMARK  121  A    between atoms: _277  and  _278
REMARK  122  A    between atoms: _277  and  _280
REMARK  123  A    between atoms: _283  and  _285
REMARK  124  A    between atoms: _285  and  _286
REMARK  125  A    between atoms: _288  and  _290
REMARK  126  A    between atoms: _290  and  _291
REMARK  127  A    between atoms: _290  and  _293
REMARK  128  A    between atoms: _293  and  _294
REMARK  129  A    between atoms: _294  and  _295
REMARK  130  A    between atoms: _298  and  _300
REMARK  131  A    between atoms: _300  and  _301
REMARK  132  A    between atoms: _300  and  _303
REMARK  133  A    between atoms: _306  and  _308
REMARK  134  A    between atoms: _308  and  _309
REMARK  135  A    between atoms: _308  and  _311
REMARK  136  A    between atoms: _311  and  _312
REMARK  137  A    between atoms: _317  and  _318
REMARK  138  A    between atoms: _320  and  _322
REMARK  139  A    between atoms: _322  and  _323
REMARK  140  A    between atoms: _322  and  _325
REMARK  141  A    between atoms: _325  and  _326
REMARK  142  A    between atoms: _329  and  _331
REMARK  143  A    between atoms: _331  and  _332
REMARK  144  A    between atoms: _334  and  _336
REMARK  145  A    between atoms: _336  and  _337
REMARK  146  A    between atoms: _339  and  _341
REMARK  147  A    between atoms: _341  and  _342
REMARK  148  A    between atoms: _341  and  _344
REMARK  149  A    between atoms: _344  and  _345
REMARK  150  A    between atoms: _345  and  _346
REMARK  151  A    between atoms: _349  and  _351
REMARK  152  A    between atoms: _351  and  _352
REMARK  153  A    between atoms: _351  and  _354
REMARK  154  A    between atoms: _354  and  _355
REMARK  155  A    between atoms: _358  and  _360
REMARK  156  A    between atoms: _360  and  _361
REMARK  157  A    between atoms: _360  and  _363
REMARK  158  A    between atoms: _363  and  _364
REMARK  159  A    between atoms: _367  and  _369
REMARK  160  A    between atoms: _369  and  _370
REMARK  161  A    between atoms: _369  and  _372
REMARK  162  A    between atoms: _372  and  _373
REMARK  163  A    between atoms: _373  and  _374
REMARK  164  A    between atoms: _377  and  _379
REMARK  165  A    between atoms: _379  and  _380
REMARK  166  A    between atoms: _379  and  _382
REMARK  167  A    between atoms: _382  and  _383
REMARK  168  A    between atoms: _388  and  _390
REMARK  169  A    between atoms: _390  and  _391
REMARK  170  A    between atoms: _390  and  _393
REMARK  171  A    between atoms: _393  and  _394
REMARK  172  A    between atoms: _397  and  _399
REMARK  173  A    between atoms: _399  and  _400
REMARK  174  A    between atoms: _399  and  _402
REMARK  175  A    between atoms: _402  and  _403
REMARK  176  A    between atoms: _406  and  _408
REMARK  177  A    between atoms: _408  and  _409
REMARK  178  A    between atoms: _408  and  _411
REMARK  179  A    between atoms: _411  and  _412
REMARK  180  A    between atoms: _415  and  _417
REMARK  181  A    between atoms: _417  and  _418
REMARK  182  A    between atoms: _417  and  _420
REMARK  183  A    between atoms: _420  and  _421
REMARK  184  A    between atoms: _421  and  _422
REMARK  185  A    between atoms: _425  and  _427
REMARK  186  A    between atoms: _427  and  _428
REMARK  187  A    between atoms: _427  and  _430
REMARK  188  A    between atoms: _430  and  _431
REMARK  189  A    between atoms: _431  and  _432
REMARK  190  A    between atoms: _432  and  _433
REMARK  191  A    between atoms: _442  and  _444
REMARK  192  A    between atoms: _444  and  _445
REMARK  193  A    between atoms: _444  and  _447
REMARK  194  A    between atoms: _447  and  _448
REMARK  195  A    between atoms: _451  and  _453
REMARK  196  A    between atoms: _453  and  _454
REMARK  197  A    between atoms: _453  and  _456
REMARK  198  A    between atoms: _456  and  _457
REMARK  199  A    between atoms: _460  and  _462
REMARK  200  A    between atoms: _462  and  _463
REMARK  201  A    between atoms: _462  and  _465
REMARK  202  A    between atoms: _465  and  _466
REMARK  203  A    between atoms: _469  and  _471
REMARK  204  A    between atoms: _471  and  _472
REMARK  205  A    between atoms: _471  and  _474
REMARK  206  A    between atoms: _474  and  _475
REMARK  207  A    between atoms: _481  and  _483
REMARK  208  A    between atoms: _483  and  _484
REMARK  209  A    between atoms: _486  and  _488
REMARK  210  A    between atoms: _488  and  _489
REMARK  211  A    between atoms: _488  and  _491
REMARK  212  A    between atoms: _491  and  _492
REMARK  213  A    between atoms: _495  and  _497
REMARK  214  A    between atoms: _497  and  _498
REMARK  215  A    between atoms: _497  and  _500
REMARK  216  A    between atoms: _500  and  _501
REMARK  217  A    between atoms: _503  and  _505
REMARK  218  A    between atoms: _505  and  _506
REMARK  219  A    between atoms: _505  and  _508
REMARK  220  A    between atoms: _508  and  _509
REMARK  221  A    between atoms: _515  and  _517
REMARK  222  A    between atoms: _517  and  _518
REMARK  223  A    between atoms: _517  and  _520
REMARK  224  A    between atoms: _520  and  _521
REMARK  225  A    between atoms: _521  and  _522
REMARK  226  A    between atoms: _522  and  _523
REMARK  227  A    between atoms: _523  and  _524
REMARK  228  A    between atoms: _528  and  _530
REMARK  229  A    between atoms: _530  and  _531
REMARK  230  A    between atoms: _530  and  _533
REMARK  231  A    between atoms: _533  and  _534
REMARK  232  A    between atoms: _534  and  _535
REMARK                            x       y       z     vdW  Elec       q    Type
REMARK                         _______ _______ _______ _____ _____    ______ ____
ROOT
ATOM      1  O   HOH     1      23.359  12.966  53.654  0.00  0.00    +0.000 OA
ENDROOT
TORSDOF 0
REMARK  Name = ../refined-set-2016/3v5t/3v5t_pocket.pdb
REMARK  232 active torsions:
REMARK  status: ('A' for Active; 'I' for Inactive)
REMARK    1  A    between atoms: _1  and  _3
REMARK    2  A    between atoms: _3  and  _4
REMARK    3  A    between atoms: _3  and  _6
REMARK    4  A    between atoms: _6  and  _7
REMARK    5  A    between atoms: _7  and  _8
REMARK    6  A    between atoms: _8  and  _9
REMARK    7  A    between atoms: _18  and  _20
REMARK    8  A    between atoms: _20  and  _21
REMARK    9  A    between atoms: _20  and  _23
REMARK   10  A    between atoms: _26  and  _28
REMARK   11  A    between atoms: _28  and  _29
REMARK   12  A    between atoms: _28  and  _31
REMARK   13  A    between atoms: _31  and  _32
REMARK   14  A    between atoms: _35  and  _37
REMARK   15  A    between atoms: _37  and  _38
REMARK   16  A    between atoms: _40  and  _42
REMARK   17  A    between atoms: _42  and  _43
REMARK   18  A    between atoms: _42  and  _45
REMARK   19  A    between atoms: _45  and  _46
REMARK   20  A    between atoms: _46  and  _47
REMARK   21  A    between atoms: _47  and  _48
REMARK   22  A    between atoms: _48  and  _49
REMARK   23  A    between atoms: _53  and  _55
REMARK   24  A    between atoms: _55  and  _56
REMARK   25  A    between atoms: _58  and  _60
REMARK   26  A    between atoms: _60  and  _61
REMARK   27  A    between atoms: _60  and  _63
REMARK   28  A    between atoms: _63  and  _64
REMARK   29  A    between atoms: _66  and  _68
REMARK   30  A    between atoms: _68  and  _69
REMARK   31  A    between atoms: _71  and  _73
REMARK   32  A    between atoms: _73  and  _74
REMARK   33  A    between atoms: _73  and  _76
REMARK   34  A    between atoms: _76  and  _77
REMARK   35  A    between atoms: _77  and  _78
REMARK   36  A    between atoms: _81  and  _83
REMARK   37  A    between atoms: _83  and  _84
REMARK   38  A    between atoms: _83  and  _86
REMARK   39  A    between atoms: _89  and  _91
REMARK   40  A    between atoms: _91  and  _92
REMARK   41  A    between atoms: _91  and  _94
REMARK   42  A    between atoms: _94  and  _95
REMARK   43  A    between atoms: _98  and  _100
REMARK   44  A    between atoms: _100  and  _101
REMARK   45  A    between atoms: _100  and  _103
REMARK   46  A    between atoms: _103  and  _104
REMARK   47  A    between atoms: _107  and  _109
REMARK   48  A    between atoms: _109  and  _110
REMARK   49  A    between atoms: _109  and  _112
REMARK   50  A    between atoms: _114  and  _116
REMARK   51  A    between atoms: _116  and  _117
REMARK   52  A    between atoms: _120  and  _122
REMARK   53  A    between atoms: _122  and  _123
REMARK   54  A    between atoms: _122  and  _125
REMARK   55  A    between atoms: _128  and  _130
REMARK   56  A    between atoms: _130  and  _131
REMARK   57  A    between atoms: _130  and  _133
REMARK   58  A    between atoms: _133  and  _134
REMARK   59  A    between atoms: _134  and  _135
REMARK   60  A    between atoms: _135  and  _136
REMARK   61  A    between atoms: _136  and  _137
REMARK   62  A    between atoms: _141  and  _143
REMARK   63  A    between atoms: _143  and  _144
REMARK   64  A    between atoms: _143  and  _146
REMARK   65  A    between atoms: _149  and  _151
REMARK   66  A    between atoms: _151  and  _152
REMARK   67  A    between atoms: _151  and  _154
REMARK   68  A    between atoms: _154  and  _155
REMARK   69  A    between atoms: _158  and  _160
REMARK   70  A    between atoms: _160  and  _161
REMARK   71  A    between atoms: _160  and  _163
REMARK   72  A    between atoms: _163  and  _164
REMARK   73  A    between atoms: _164  and  _165
REMARK   74  A    between atoms: _168  and  _170
REMARK   75  A    between atoms: _170  and  _171
REMARK   76  A    between atoms: _170  and  _173
REMARK   77  A    between atoms: _176  and  _178
REMARK   78  A    between atoms: _178  and  _179
REMARK   79  A    between atoms: _178  and  _181
REMARK   80  A    between atoms: _181  and  _182
REMARK   81  A    between atoms: _185  and  _187
REMARK   82  A    between atoms: _187  and  _188
REMARK   83  A    between atoms: _187  and  _190
REMARK   84  A    between atoms: _190  and  _191
REMARK   85  A    between atoms: _191  and  _192
REMARK   86  A    between atoms: _194  and  _196
REMARK   87  A    between atoms: _196  and  _197
REMARK   88  A    between atoms: _196  and  _199
REMARK   89  A    between atoms: _199  and  _200
REMARK   90  A    between atoms: _200  and  _201
REMARK   91  A    between atoms: _201  and  _202
REMARK   92  A    between atoms: _202  and  _203
REMARK   93  A    between atoms: _207  and  _209
REMARK   94  A    between atoms: _209  and  _210
REMARK   95  A    between atoms: _209  and  _212
REMARK   96  A    between atoms: _212  and  _213
REMARK   97  A    between atoms: _216  and  _218
REMARK   98  A    between atoms: _218  and  _219
REMARK   99  A    between atoms: _218  and  _221
REMARK  100  A    between atoms: _221  and  _222
REMARK  101  A    between atoms: _227  and  _228
REMARK  102  A    between atoms: _230  and  _232
REMARK  103  A    between atoms: _232  and  _233
REMARK  104  A    between atoms: _232  and  _235
REMARK  105  A    between atoms: _235  and  _236
REMARK  106  A    between atoms: _236  and  _237
REMARK  107  A    between atoms: _240  and  _242
REMARK  108  A    between atoms: _242  and  _243
REMARK  109  A    between atoms: _242  and  _245
REMARK  110  A    between atoms: _245  and  _246
REMARK  111  A    between atoms: _252  and  _254
REMARK  112  A    between atoms: _254  and  _255
REMARK  113  A    between atoms: _254  and  _257
REMARK  114  A    between atoms: _257  and  _258
REMARK  115  A    between atoms: _263  and  _264
REMARK  116  A    between atoms: _266  and  _268
REMARK  117  A    between atoms: _268  and  _269
REMARK  118  A    between atoms: _268  and  _271
REMARK  119  A    between atoms: _271  and  _272
REMARK  120  A    between atoms: _275  and  _277
REMARK  121  A    between atoms: _277  and  _278
REMARK  122  A    between atoms: _277  and  _280
REMARK  123  A    between atoms: _283  and  _285
REMARK  124  A    between atoms: _285  and  _286
REMARK  125  A    between atoms: _288  and  _290
REMARK  126  A    between atoms: _290  and  _291
REMARK  127  A    between atoms: _290  and  _293
REMARK  128  A    between atoms: _293  and  _294
REMARK  129  A    between atoms: _294  and  _295
REMARK  130  A    between atoms: _298  and  _300
REMARK  131  A    between atoms: _300  and  _301
REMARK  132  A    between atoms: _300  and  _303
REMARK  133  A    between atoms: _306  and  _308
REMARK  134  A    between atoms: _308  and  _309
REMARK  135  A    between atoms: _308  and  _311
REMARK  136  A    between atoms: _311  and  _312
REMARK  137  A    between atoms: _317  and  _318
REMARK  138  A    between atoms: _320  and  _322
REMARK  139  A    between atoms: _322  and  _323
REMARK  140  A    between atoms: _322  and  _325
REMARK  141  A    between atoms: _325  and  _326
REMARK  142  A    between atoms: _329  and  _331
REMARK  143  A    between atoms: _331  and  _332
REMARK  144  A    between atoms: _334  and  _336
REMARK  145  A    between atoms: _336  and  _337
REMARK  146  A    between atoms: _339  and  _341
REMARK  147  A    between atoms: _341  and  _342
REMARK  148  A    between atoms: _341  and  _344
REMARK  149  A    between atoms: _344  and  _345
REMARK  150  A    between atoms: _345  and  _346
REMARK  151  A    between atoms: _349  and  _351
REMARK  152  A    between atoms: _351  and  _352
REMARK  153  A    between atoms: _351  and  _354
REMARK  154  A    between atoms: _354  and  _355
REMARK  155  A    between atoms: _358  and  _360
REMARK  156  A    between atoms: _360  and  _361
REMARK  157  A    between atoms: _360  and  _363
REMARK  158  A    between atoms: _363  and  _364
REMARK  159  A    between atoms: _367  and  _369
REMARK  160  A    between atoms: _369  and  _370
REMARK  161  A    between atoms: _369  and  _372
REMARK  162  A    between atoms: _372  and  _373
REMARK  163  A    between atoms: _373  and  _374
REMARK  164  A    between atoms: _377  and  _379
REMARK  165  A    between atoms: _379  and  _380
REMARK  166  A    between atoms: _379  and  _382
REMARK  167  A    between atoms: _382  and  _383
REMARK  168  A    between atoms: _388  and  _390
REMARK  169  A    between atoms: _390  and  _391
REMARK  170  A    between atoms: _390  and  _393
REMARK  171  A    between atoms: _393  and  _394
REMARK  172  A    between atoms: _397  and  _399
REMARK  173  A    between atoms: _399  and  _400
REMARK  174  A    between atoms: _399  and  _402
REMARK  175  A    between atoms: _402  and  _403
REMARK  176  A    between atoms: _406  and  _408
REMARK  177  A    between atoms: _408  and  _409
REMARK  178  A    between atoms: _408  and  _411
REMARK  179  A    between atoms: _411  and  _412
REMARK  180  A    between atoms: _415  and  _417
REMARK  181  A    between atoms: _417  and  _418
REMARK  182  A    between atoms: _417  and  _420
REMARK  183  A    between atoms: _420  and  _421
REMARK  184  A    between atoms: _421  and  _422
REMARK  185  A    between atoms: _425  and  _427
REMARK  186  A    between atoms: _427  and  _428
REMARK  187  A    between atoms: _427  and  _430
REMARK  188  A    between atoms: _430  and  _431
REMARK  189  A    between atoms: _431  and  _432
REMARK  190  A    between atoms: _432  and  _433
REMARK  191  A    between atoms: _442  and  _444
REMARK  192  A    between atoms: _444  and  _445
REMARK  193  A    between atoms: _444  and  _447
REMARK  194  A    between atoms: _447  and  _448
REMARK  195  A    between atoms: _451  and  _453
REMARK  196  A    between atoms: _453  and  _454
REMARK  197  A    between atoms: _453  and  _456
REMARK  198  A    between atoms: _456  and  _457
REMARK  199  A    between atoms: _460  and  _462
REMARK  200  A    between atoms: _462  and  _463
REMARK  201  A    between atoms: _462  and  _465
REMARK  202  A    between atoms: _465  and  _466
REMARK  203  A    between atoms: _469  and  _471
REMARK  204  A    between atoms: _471  and  _472
REMARK  205  A    between atoms: _471  and  _474
REMARK  206  A    between atoms: _474  and  _475
REMARK  207  A    between atoms: _481  and  _483
REMARK  208  A    between atoms: _483  and  _484
REMARK  209  A    between atoms: _486  and  _488
REMARK  210  A    between atoms: _488  and  _489
REMARK  211  A    between atoms: _488  and  _491
REMARK  212  A    between atoms: _491  and  _492
REMARK  213  A    between atoms: _495  and  _497
REMARK  214  A    between atoms: _497  and  _498
REMARK  215  A    between atoms: _497  and  _500
REMARK  216  A    between atoms: _500  and  _501
REMARK  217  A    between atoms: _503  and  _505
REMARK  218  A    between atoms: _505  and  _506
REMARK  219  A    between atoms: _505  and  _508
REMARK  220  A    between atoms: _508  and  _509
REMARK  221  A    between atoms: _515  and  _517
REMARK  222  A    between atoms: _517  and  _518
REMARK  223  A    between atoms: _517  and  _520
REMARK  224  A    between atoms: _520  and  _521
REMARK  225  A    between atoms: _521  and  _522
REMARK  226  A    between atoms: _522  and  _523
REMARK  227  A    between atoms: _523  and  _524
REMARK  228  A    between atoms: _528  and  _530
REMARK  229  A    between atoms: _530  and  _531
REMARK  230  A    between atoms: _530  and  _533
REMARK  231  A    between atoms: _533  and  _534
REMARK  232  A    between atoms: _534  and  _535
REMARK                            x       y       z     vdW  Elec       q    Type
REMARK                         _______ _______ _______ _____ _____    ______ ____
ROOT
ATOM      1  O   HOH     1       6.419  12.363  61.710  0.00  0.00    +0.000 OA
ENDROOT
TORSDOF 0
REMARK  Name = ../refined-set-2016/3v5t/3v5t_pocket.pdb
REMARK  232 active torsions:
REMARK  status: ('A' for Active; 'I' for Inactive)
REMARK    1  A    between atoms: _1  and  _3
REMARK    2  A    between atoms: _3  and  _4
REMARK    3  A    between atoms: _3  and  _6
REMARK    4  A    between atoms: _6  and  _7
REMARK    5  A    between atoms: _7  and  _8
REMARK    6  A    between atoms: _8  and  _9
REMARK    7  A    between atoms: _18  and  _20
REMARK    8  A    between atoms: _20  and  _21
REMARK    9  A    between atoms: _20  and  _23
REMARK   10  A    between atoms: _26  and  _28
REMARK   11  A    between atoms: _28  and  _29
REMARK   12  A    between atoms: _28  and  _31
REMARK   13  A    between atoms: _31  and  _32
REMARK   14  A    between atoms: _35  and  _37
REMARK   15  A    between atoms: _37  and  _38
REMARK   16  A    between atoms: _40  and  _42
REMARK   17  A    between atoms: _42  and  _43
REMARK   18  A    between atoms: _42  and  _45
REMARK   19  A    between atoms: _45  and  _46
REMARK   20  A    between atoms: _46  and  _47
REMARK   21  A    between atoms: _47  and  _48
REMARK   22  A    between atoms: _48  and  _49
REMARK   23  A    between atoms: _53  and  _55
REMARK   24  A    between atoms: _55  and  _56
REMARK   25  A    between atoms: _58  and  _60
REMARK   26  A    between atoms: _60  and  _61
REMARK   27  A    between atoms: _60  and  _63
REMARK   28  A    between atoms: _63  and  _64
REMARK   29  A    between atoms: _66  and  _68
REMARK   30  A    between atoms: _68  and  _69
REMARK   31  A    between atoms: _71  and  _73
REMARK   32  A    between atoms: _73  and  _74
REMARK   33  A    between atoms: _73  and  _76
REMARK   34  A    between atoms: _76  and  _77
REMARK   35  A    between atoms: _77  and  _78
REMARK   36  A    between atoms: _81  and  _83
REMARK   37  A    between atoms: _83  and  _84
REMARK   38  A    between atoms: _83  and  _86
REMARK   39  A    between atoms: _89  and  _91
REMARK   40  A    between atoms: _91  and  _92
REMARK   41  A    between atoms: _91  and  _94
REMARK   42  A    between atoms: _94  and  _95
REMARK   43  A    between atoms: _98  and  _100
REMARK   44  A    between atoms: _100  and  _101
REMARK   45  A    between atoms: _100  and  _103
REMARK   46  A    between atoms: _103  and  _104
REMARK   47  A    between atoms: _107  and  _109
REMARK   48  A    between atoms: _109  and  _110
REMARK   49  A    between atoms: _109  and  _112
REMARK   50  A    between atoms: _114  and  _116
REMARK   51  A    between atoms: _116  and  _117
REMARK   52  A    between atoms: _120  and  _122
REMARK   53  A    between atoms: _122  and  _123
REMARK   54  A    between atoms: _122  and  _125
REMARK   55  A    between atoms: _128  and  _130
REMARK   56  A    between atoms: _130  and  _131
REMARK   57  A    between atoms: _130  and  _133
REMARK   58  A    between atoms: _133  and  _134
REMARK   59  A    between atoms: _134  and  _135
REMARK   60  A    between atoms: _135  and  _136
REMARK   61  A    between atoms: _136  and  _137
REMARK   62  A    between atoms: _141  and  _143
REMARK   63  A    between atoms: _143  and  _144
REMARK   64  A    between atoms: _143  and  _146
REMARK   65  A    between atoms: _149  and  _151
REMARK   66  A    between atoms: _151  and  _152
REMARK   67  A    between atoms: _151  and  _154
REMARK   68  A    between atoms: _154  and  _155
REMARK   69  A    between atoms: _158  and  _160
REMARK   70  A    between atoms: _160  and  _161
REMARK   71  A    between atoms: _160  and  _163
REMARK   72  A    between atoms: _163  and  _164
REMARK   73  A    between atoms: _164  and  _165
REMARK   74  A    between atoms: _168  and  _170
REMARK   75  A    between atoms: _170  and  _171
REMARK   76  A    between atoms: _170  and  _173
REMARK   77  A    between atoms: _176  and  _178
REMARK   78  A    between atoms: _178  and  _179
REMARK   79  A    between atoms: _178  and  _181
REMARK   80  A    between atoms: _181  and  _182
REMARK   81  A    between atoms: _185  and  _187
REMARK   82  A    between atoms: _187  and  _188
REMARK   83  A    between atoms: _187  and  _190
REMARK   84  A    between atoms: _190  and  _191
REMARK   85  A    between atoms: _191  and  _192
REMARK   86  A    between atoms: _194  and  _196
REMARK   87  A    between atoms: _196  and  _197
REMARK   88  A    between atoms: _196  and  _199
REMARK   89  A    between atoms: _199  and  _200
REMARK   90  A    between atoms: _200  and  _201
REMARK   91  A    between atoms: _201  and  _202
REMARK   92  A    between atoms: _202  and  _203
REMARK   93  A    between atoms: _207  and  _209
REMARK   94  A    between atoms: _209  and  _210
REMARK   95  A    between atoms: _209  and  _212
REMARK   96  A    between atoms: _212  and  _213
REMARK   97  A    between atoms: _216  and  _218
REMARK   98  A    between atoms: _218  and  _219
REMARK   99  A    between atoms: _218  and  _221
REMARK  100  A    between atoms: _221  and  _222
REMARK  101  A    between atoms: _227  and  _228
REMARK  102  A    between atoms: _230  and  _232
REMARK  103  A    between atoms: _232  and  _233
REMARK  104  A    between atoms: _232  and  _235
REMARK  105  A    between atoms: _235  and  _236
REMARK  106  A    between atoms: _236  and  _237
REMARK  107  A    between atoms: _240  and  _242
REMARK  108  A    between atoms: _242  and  _243
REMARK  109  A    between atoms: _242  and  _245
REMARK  110  A    between atoms: _245  and  _246
REMARK  111  A    between atoms: _252  and  _254
REMARK  112  A    between atoms: _254  and  _255
REMARK  113  A    between atoms: _254  and  _257
REMARK  114  A    between atoms: _257  and  _258
REMARK  115  A    between atoms: _263  and  _264
REMARK  116  A    between atoms: _266  and  _268
REMARK  117  A    between atoms: _268  and  _269
REMARK  118  A    between atoms: _268  and  _271
REMARK  119  A    between atoms: _271  and  _272
REMARK  120  A    between atoms: _275  and  _277
REMARK  121  A    between atoms: _277  and  _278
REMARK  122  A    between atoms: _277  and  _280
REMARK  123  A    between atoms: _283  and  _285
REMARK  124  A    between atoms: _285  and  _286
REMARK  125  A    between atoms: _288  and  _290
REMARK  126  A    between atoms: _290  and  _291
REMARK  127  A    between atoms: _290  and  _293
REMARK  128  A    between atoms: _293  and  _294
REMARK  129  A    between atoms: _294  and  _295
REMARK  130  A    between atoms: _298  and  _300
REMARK  131  A    between atoms: _300  and  _301
REMARK  132  A    between atoms: _300  and  _303
REMARK  133  A    between atoms: _306  and  _308
REMARK  134  A    between atoms: _308  and  _309
REMARK  135  A    between atoms: _308  and  _311
REMARK  136  A    between atoms: _311  and  _312
REMARK  137  A    between atoms: _317  and  _318
REMARK  138  A    between atoms: _320  and  _322
REMARK  139  A    between atoms: _322  and  _323
REMARK  140  A    between atoms: _322  and  _325
REMARK  141  A    between atoms: _325  and  _326
REMARK  142  A    between atoms: _329  and  _331
REMARK  143  A    between atoms: _331  and  _332
REMARK  144  A    between atoms: _334  and  _336
REMARK  145  A    between atoms: _336  and  _337
REMARK  146  A    between atoms: _339  and  _341
REMARK  147  A    between atoms: _341  and  _342
REMARK  148  A    between atoms: _341  and  _344
REMARK  149  A    between atoms: _344  and  _345
REMARK  150  A    between atoms: _345  and  _346
REMARK  151  A    between atoms: _349  and  _351
REMARK  152  A    between atoms: _351  and  _352
REMARK  153  A    between atoms: _351  and  _354
REMARK  154  A    between atoms: _354  and  _355
REMARK  155  A    between atoms: _358  and  _360
REMARK  156  A    between atoms: _360  and  _361
REMARK  157  A    between atoms: _360  and  _363
REMARK  158  A    between atoms: _363  and  _364
REMARK  159  A    between atoms: _367  and  _369
REMARK  160  A    between atoms: _369  and  _370
REMARK  161  A    between atoms: _369  and  _372
REMARK  162  A    between atoms: _372  and  _373
REMARK  163  A    between atoms: _373  and  _374
REMARK  164  A    between atoms: _377  and  _379
REMARK  165  A    between atoms: _379  and  _380
REMARK  166  A    between atoms: _379  and  _382
REMARK  167  A    between atoms: _382  and  _383
REMARK  168  A    between atoms: _388  and  _390
REMARK  169  A    between atoms: _390  and  _391
REMARK  170  A    between atoms: _390  and  _393
REMARK  171  A    between atoms: _393  and  _394
REMARK  172  A    between atoms: _397  and  _399
REMARK  173  A    between atoms: _399  and  _400
REMARK  174  A    between atoms: _399  and  _402
REMARK  175  A    between atoms: _402  and  _403
REMARK  176  A    between atoms: _406  and  _408
REMARK  177  A    between atoms: _408  and  _409
REMARK  178  A    between atoms: _408  and  _411
REMARK  179  A    between atoms: _411  and  _412
REMARK  180  A    between atoms: _415  and  _417
REMARK  181  A    between atoms: _417  and  _418
REMARK  182  A    between atoms: _417  and  _420
REMARK  183  A    between atoms: _420  and  _421
REMARK  184  A    between atoms: _421  and  _422
REMARK  185  A    between atoms: _425  and  _427
REMARK  186  A    between atoms: _427  and  _428
REMARK  187  A    between atoms: _427  and  _430
REMARK  188  A    between atoms: _430  and  _431
REMARK  189  A    between atoms: _431  and  _432
REMARK  190  A    between atoms: _432  and  _433
REMARK  191  A    between atoms: _442  and  _444
REMARK  192  A    between atoms: _444  and  _445
REMARK  193  A    between atoms: _444  and  _447
REMARK  194  A    between atoms: _447  and  _448
REMARK  195  A    between atoms: _451  and  _453
REMARK  196  A    between atoms: _453  and  _454
REMARK  197  A    between atoms: _453  and  _456
REMARK  198  A    between atoms: _456  and  _457
REMARK  199  A    between atoms: _460  and  _462
REMARK  200  A    between atoms: _462  and  _463
REMARK  201  A    between atoms: _462  and  _465
REMARK  202  A    between atoms: _465  and  _466
REMARK  203  A    between atoms: _469  and  _471
REMARK  204  A    between atoms: _471  and  _472
REMARK  205  A    between atoms: _471  and  _474
REMARK  206  A    between atoms: _474  and  _475
REMARK  207  A    between atoms: _481  and  _483
REMARK  208  A    between atoms: _483  and  _484
REMARK  209  A    between atoms: _486  and  _488
REMARK  210  A    between atoms: _488  and  _489
REMARK  211  A    between atoms: _488  and  _491
REMARK  212  A    between atoms: _491  and  _492
REMARK  213  A    between atoms: _495  and  _497
REMARK  214  A    between atoms: _497  and  _498
REMARK  215  A    between atoms: _497  and  _500
REMARK  216  A    between atoms: _500  and  _501
REMARK  217  A    between atoms: _503  and  _505
REMARK  218  A    between atoms: _505  and  _506
REMARK  219  A    between atoms: _505  and  _508
REMARK  220  A    between atoms: _508  and  _509
REMARK  221  A    between atoms: _515  and  _517
REMARK  222  A    between atoms: _517  and  _518
REMARK  223  A    between atoms: _517  and  _520
REMARK  224  A    between atoms: _520  and  _521
REMARK  225  A    between atoms: _521  and  _522
REMARK  226  A    between atoms: _522  and  _523
REMARK  227  A    between atoms: _523  and  _524
REMARK  228  A    between atoms: _528  and  _530
REMARK  229  A    between atoms: _530  and  _531
REMARK  230  A    between atoms: _530  and  _533
REMARK  231  A    between atoms: _533  and  _534
REMARK  232  A    between atoms: _534  and  _535
REMARK                            x       y       z     vdW  Elec       q    Type
REMARK                         _______ _______ _______ _____ _____    ______ ____
ROOT
ATOM      1  O   HOH     1       3.920   8.442  62.539  0.00  0.00    +0.000 OA
ENDROOT
TORSDOF 0
REMARK  Name = ../refined-set-2016/3v5t/3v5t_pocket.pdb
REMARK  232 active torsions:
REMARK  status: ('A' for Active; 'I' for Inactive)
REMARK    1  A    between atoms: _1  and  _3
REMARK    2  A    between atoms: _3  and  _4
REMARK    3  A    between atoms: _3  and  _6
REMARK    4  A    between atoms: _6  and  _7
REMARK    5  A    between atoms: _7  and  _8
REMARK    6  A    between atoms: _8  and  _9
REMARK    7  A    between atoms: _18  and  _20
REMARK    8  A    between atoms: _20  and  _21
REMARK    9  A    between atoms: _20  and  _23
REMARK   10  A    between atoms: _26  and  _28
REMARK   11  A    between atoms: _28  and  _29
REMARK   12  A    between atoms: _28  and  _31
REMARK   13  A    between atoms: _31  and  _32
REMARK   14  A    between atoms: _35  and  _37
REMARK   15  A    between atoms: _37  and  _38
REMARK   16  A    between atoms: _40  and  _42
REMARK   17  A    between atoms: _42  and  _43
REMARK   18  A    between atoms: _42  and  _45
REMARK   19  A    between atoms: _45  and  _46
REMARK   20  A    between atoms: _46  and  _47
REMARK   21  A    between atoms: _47  and  _48
REMARK   22  A    between atoms: _48  and  _49
REMARK   23  A    between atoms: _53  and  _55
REMARK   24  A    between atoms: _55  and  _56
REMARK   25  A    between atoms: _58  and  _60
REMARK   26  A    between atoms: _60  and  _61
REMARK   27  A    between atoms: _60  and  _63
REMARK   28  A    between atoms: _63  and  _64
REMARK   29  A    between atoms: _66  and  _68
REMARK   30  A    between atoms: _68  and  _69
REMARK   31  A    between atoms: _71  and  _73
REMARK   32  A    between atoms: _73  and  _74
REMARK   33  A    between atoms: _73  and  _76
REMARK   34  A    between atoms: _76  and  _77
REMARK   35  A    between atoms: _77  and  _78
REMARK   36  A    between atoms: _81  and  _83
REMARK   37  A    between atoms: _83  and  _84
REMARK   38  A    between atoms: _83  and  _86
REMARK   39  A    between atoms: _89  and  _91
REMARK   40  A    between atoms: _91  and  _92
REMARK   41  A    between atoms: _91  and  _94
REMARK   42  A    between atoms: _94  and  _95
REMARK   43  A    between atoms: _98  and  _100
REMARK   44  A    between atoms: _100  and  _101
REMARK   45  A    between atoms: _100  and  _103
REMARK   46  A    between atoms: _103  and  _104
REMARK   47  A    between atoms: _107  and  _109
REMARK   48  A    between atoms: _109  and  _110
REMARK   49  A    between atoms: _109  and  _112
REMARK   50  A    between atoms: _114  and  _116
REMARK   51  A    between atoms: _116  and  _117
REMARK   52  A    between atoms: _120  and  _122
REMARK   53  A    between atoms: _122  and  _123
REMARK   54  A    between atoms: _122  and  _125
REMARK   55  A    between atoms: _128  and  _130
REMARK   56  A    between atoms: _130  and  _131
REMARK   57  A    between atoms: _130  and  _133
REMARK   58  A    between atoms: _133  and  _134
REMARK   59  A    between atoms: _134  and  _135
REMARK   60  A    between atoms: _135  and  _136
REMARK   61  A    between atoms: _136  and  _137
REMARK   62  A    between atoms: _141  and  _143
REMARK   63  A    between atoms: _143  and  _144
REMARK   64  A    between atoms: _143  and  _146
REMARK   65  A    between atoms: _149  and  _151
REMARK   66  A    between atoms: _151  and  _152
REMARK   67  A    between atoms: _151  and  _154
REMARK   68  A    between atoms: _154  and  _155
REMARK   69  A    between atoms: _158  and  _160
REMARK   70  A    between atoms: _160  and  _161
REMARK   71  A    between atoms: _160  and  _163
REMARK   72  A    between atoms: _163  and  _164
REMARK   73  A    between atoms: _164  and  _165
REMARK   74  A    between atoms: _168  and  _170
REMARK   75  A    between atoms: _170  and  _171
REMARK   76  A    between atoms: _170  and  _173
REMARK   77  A    between atoms: _176  and  _178
REMARK   78  A    between atoms: _178  and  _179
REMARK   79  A    between atoms: _178  and  _181
REMARK   80  A    between atoms: _181  and  _182
REMARK   81  A    between atoms: _185  and  _187
REMARK   82  A    between atoms: _187  and  _188
REMARK   83  A    between atoms: _187  and  _190
REMARK   84  A    between atoms: _190  and  _191
REMARK   85  A    between atoms: _191  and  _192
REMARK   86  A    between atoms: _194  and  _196
REMARK   87  A    between atoms: _196  and  _197
REMARK   88  A    between atoms: _196  and  _199
REMARK   89  A    between atoms: _199  and  _200
REMARK   90  A    between atoms: _200  and  _201
REMARK   91  A    between atoms: _201  and  _202
REMARK   92  A    between atoms: _202  and  _203
REMARK   93  A    between atoms: _207  and  _209
REMARK   94  A    between atoms: _209  and  _210
REMARK   95  A    between atoms: _209  and  _212
REMARK   96  A    between atoms: _212  and  _213
REMARK   97  A    between atoms: _216  and  _218
REMARK   98  A    between atoms: _218  and  _219
REMARK   99  A    between atoms: _218  and  _221
REMARK  100  A    between atoms: _221  and  _222
REMARK  101  A    between atoms: _227  and  _228
REMARK  102  A    between atoms: _230  and  _232
REMARK  103  A    between atoms: _232  and  _233
REMARK  104  A    between atoms: _232  and  _235
REMARK  105  A    between atoms: _235  and  _236
REMARK  106  A    between atoms: _236  and  _237
REMARK  107  A    between atoms: _240  and  _242
REMARK  108  A    between atoms: _242  and  _243
REMARK  109  A    between atoms: _242  and  _245
REMARK  110  A    between atoms: _245  and  _246
REMARK  111  A    between atoms: _252  and  _254
REMARK  112  A    between atoms: _254  and  _255
REMARK  113  A    between atoms: _254  and  _257
REMARK  114  A    between atoms: _257  and  _258
REMARK  115  A    between atoms: _263  and  _264
REMARK  116  A    between atoms: _266  and  _268
REMARK  117  A    between atoms: _268  and  _269
REMARK  118  A    between atoms: _268  and  _271
REMARK  119  A    between atoms: _271  and  _272
REMARK  120  A    between atoms: _275  and  _277
REMARK  121  A    between atoms: _277  and  _278
REMARK  122  A    between atoms: _277  and  _280
REMARK  123  A    between atoms: _283  and  _285
REMARK  124  A    between atoms: _285  and  _286
REMARK  125  A    between atoms: _288  and  _290
REMARK  126  A    between atoms: _290  and  _291
REMARK  127  A    between atoms: _290  and  _293
REMARK  128  A    between atoms: _293  and  _294
REMARK  129  A    between atoms: _294  and  _295
REMARK  130  A    between atoms: _298  and  _300
REMARK  131  A    between atoms: _300  and  _301
REMARK  132  A    between atoms: _300  and  _303
REMARK  133  A    between atoms: _306  and  _308
REMARK  134  A    between atoms: _308  and  _309
REMARK  135  A    between atoms: _308  and  _311
REMARK  136  A    between atoms: _311  and  _312
REMARK  137  A    between atoms: _317  and  _318
REMARK  138  A    between atoms: _320  and  _322
REMARK  139  A    between atoms: _322  and  _323
REMARK  140  A    between atoms: _322  and  _325
REMARK  141  A    between atoms: _325  and  _326
REMARK  142  A    between atoms: _329  and  _331
REMARK  143  A    between atoms: _331  and  _332
REMARK  144  A    between atoms: _334  and  _336
REMARK  145  A    between atoms: _336  and  _337
REMARK  146  A    between atoms: _339  and  _341
REMARK  147  A    between atoms: _341  and  _342
REMARK  148  A    between atoms: _341  and  _344
REMARK  149  A    between atoms: _344  and  _345
REMARK  150  A    between atoms: _345  and  _346
REMARK  151  A    between atoms: _349  and  _351
REMARK  152  A    between atoms: _351  and  _352
REMARK  153  A    between atoms: _351  and  _354
REMARK  154  A    between atoms: _354  and  _355
REMARK  155  A    between atoms: _358  and  _360
REMARK  156  A    between atoms: _360  and  _361
REMARK  157  A    between atoms: _360  and  _363
REMARK  158  A    between atoms: _363  and  _364
REMARK  159  A    between atoms: _367  and  _369
REMARK  160  A    between atoms: _369  and  _370
REMARK  161  A    between atoms: _369  and  _372
REMARK  162  A    between atoms: _372  and  _373
REMARK  163  A    between atoms: _373  and  _374
REMARK  164  A    between atoms: _377  and  _379
REMARK  165  A    between atoms: _379  and  _380
REMARK  166  A    between atoms: _379  and  _382
REMARK  167  A    between atoms: _382  and  _383
REMARK  168  A    between atoms: _388  and  _390
REMARK  169  A    between atoms: _390  and  _391
REMARK  170  A    between atoms: _390  and  _393
REMARK  171  A    between atoms: _393  and  _394
REMARK  172  A    between atoms: _397  and  _399
REMARK  173  A    between atoms: _399  and  _400
REMARK  174  A    between atoms: _399  and  _402
REMARK  175  A    between atoms: _402  and  _403
REMARK  176  A    between atoms: _406  and  _408
REMARK  177  A    between atoms: _408  and  _409
REMARK  178  A    between atoms: _408  and  _411
REMARK  179  A    between atoms: _411  and  _412
REMARK  180  A    between atoms: _415  and  _417
REMARK  181  A    between atoms: _417  and  _418
REMARK  182  A    between atoms: _417  and  _420
REMARK  183  A    between atoms: _420  and  _421
REMARK  184  A    between atoms: _421  and  _422
REMARK  185  A    between atoms: _425  and  _427
REMARK  186  A    between atoms: _427  and  _428
REMARK  187  A    between atoms: _427  and  _430
REMARK  188  A    between atoms: _430  and  _431
REMARK  189  A    between atoms: _431  and  _432
REMARK  190  A    between atoms: _432  and  _433
REMARK  191  A    between atoms: _442  and  _444
REMARK  192  A    between atoms: _444  and  _445
REMARK  193  A    between atoms: _444  and  _447
REMARK  194  A    between atoms: _447  and  _448
REMARK  195  A    between atoms: _451  and  _453
REMARK  196  A    between atoms: _453  and  _454
REMARK  197  A    between atoms: _453  and  _456
REMARK  198  A    between atoms: _456  and  _457
REMARK  199  A    between atoms: _460  and  _462
REMARK  200  A    between atoms: _462  and  _463
REMARK  201  A    between atoms: _462  and  _465
REMARK  202  A    between atoms: _465  and  _466
REMARK  203  A    between atoms: _469  and  _471
REMARK  204  A    between atoms: _471  and  _472
REMARK  205  A    between atoms: _471  and  _474
REMARK  206  A    between atoms: _474  and  _475
REMARK  207  A    between atoms: _481  and  _483
REMARK  208  A    between atoms: _483  and  _484
REMARK  209  A    between atoms: _486  and  _488
REMARK  210  A    between atoms: _488  and  _489
REMARK  211  A    between atoms: _488  and  _491
REMARK  212  A    between atoms: _491  and  _492
REMARK  213  A    between atoms: _495  and  _497
REMARK  214  A    between atoms: _497  and  _498
REMARK  215  A    between atoms: _497  and  _500
REMARK  216  A    between atoms: _500  and  _501
REMARK  217  A    between atoms: _503  and  _505
REMARK  218  A    between atoms: _505  and  _506
REMARK  219  A    between atoms: _505  and  _508
REMARK  220  A    between atoms: _508  and  _509
REMARK  221  A    between atoms: _515  and  _517
REMARK  222  A    between atoms: _517  and  _518
REMARK  223  A    between atoms: _517  and  _520
REMARK  224  A    between atoms: _520  and  _521
REMARK  225  A    between atoms: _521  and  _522
REMARK  226  A    between atoms: _522  and  _523
REMARK  227  A    between atoms: _523  and  _524
REMARK  228  A    between atoms: _528  and  _530
REMARK  229  A    between atoms: _530  and  _531
REMARK  230  A    between atoms: _530  and  _533
REMARK  231  A    between atoms: _533  and  _534
REMARK  232  A    between atoms: _534  and  _535
REMARK                            x       y       z     vdW  Elec       q    Type
REMARK                         _______ _______ _______ _____ _____    ______ ____
ROOT
ATOM      1  O   HOH     1      16.176   5.056  67.130  0.00  0.00    +0.000 OA
ENDROOT
TORSDOF 0
REMARK  Name = ../refined-set-2016/3v5t/3v5t_pocket.pdb
REMARK  232 active torsions:
REMARK  status: ('A' for Active; 'I' for Inactive)
REMARK    1  A    between atoms: _1  and  _3
REMARK    2  A    between atoms: _3  and  _4
REMARK    3  A    between atoms: _3  and  _6
REMARK    4  A    between atoms: _6  and  _7
REMARK    5  A    between atoms: _7  and  _8
REMARK    6  A    between atoms: _8  and  _9
REMARK    7  A    between atoms: _18  and  _20
REMARK    8  A    between atoms: _20  and  _21
REMARK    9  A    between atoms: _20  and  _23
REMARK   10  A    between atoms: _26  and  _28
REMARK   11  A    between atoms: _28  and  _29
REMARK   12  A    between atoms: _28  and  _31
REMARK   13  A    between atoms: _31  and  _32
REMARK   14  A    between atoms: _35  and  _37
REMARK   15  A    between atoms: _37  and  _38
REMARK   16  A    between atoms: _40  and  _42
REMARK   17  A    between atoms: _42  and  _43
REMARK   18  A    between atoms: _42  and  _45
REMARK   19  A    between atoms: _45  and  _46
REMARK   20  A    between atoms: _46  and  _47
REMARK   21  A    between atoms: _47  and  _48
REMARK   22  A    between atoms: _48  and  _49
REMARK   23  A    between atoms: _53  and  _55
REMARK   24  A    between atoms: _55  and  _56
REMARK   25  A    between atoms: _58  and  _60
REMARK   26  A    between atoms: _60  and  _61
REMARK   27  A    between atoms: _60  and  _63
REMARK   28  A    between atoms: _63  and  _64
REMARK   29  A    between atoms: _66  and  _68
REMARK   30  A    between atoms: _68  and  _69
REMARK   31  A    between atoms: _71  and  _73
REMARK   32  A    between atoms: _73  and  _74
REMARK   33  A    between atoms: _73  and  _76
REMARK   34  A    between atoms: _76  and  _77
REMARK   35  A    between atoms: _77  and  _78
REMARK   36  A    between atoms: _81  and  _83
REMARK   37  A    between atoms: _83  and  _84
REMARK   38  A    between atoms: _83  and  _86
REMARK   39  A    between atoms: _89  and  _91
REMARK   40  A    between atoms: _91  and  _92
REMARK   41  A    between atoms: _91  and  _94
REMARK   42  A    between atoms: _94  and  _95
REMARK   43  A    between atoms: _98  and  _100
REMARK   44  A    between atoms: _100  and  _101
REMARK   45  A    between atoms: _100  and  _103
REMARK   46  A    between atoms: _103  and  _104
REMARK   47  A    between atoms: _107  and  _109
REMARK   48  A    between atoms: _109  and  _110
REMARK   49  A    between atoms: _109  and  _112
REMARK   50  A    between atoms: _114  and  _116
REMARK   51  A    between atoms: _116  and  _117
REMARK   52  A    between atoms: _120  and  _122
REMARK   53  A    between atoms: _122  and  _123
REMARK   54  A    between atoms: _122  and  _125
REMARK   55  A    between atoms: _128  and  _130
REMARK   56  A    between atoms: _130  and  _131
REMARK   57  A    between atoms: _130  and  _133
REMARK   58  A    between atoms: _133  and  _134
REMARK   59  A    between atoms: _134  and  _135
REMARK   60  A    between atoms: _135  and  _136
REMARK   61  A    between atoms: _136  and  _137
REMARK   62  A    between atoms: _141  and  _143
REMARK   63  A    between atoms: _143  and  _144
REMARK   64  A    between atoms: _143  and  _146
REMARK   65  A    between atoms: _149  and  _151
REMARK   66  A    between atoms: _151  and  _152
REMARK   67  A    between atoms: _151  and  _154
REMARK   68  A    between atoms: _154  and  _155
REMARK   69  A    between atoms: _158  and  _160
REMARK   70  A    between atoms: _160  and  _161
REMARK   71  A    between atoms: _160  and  _163
REMARK   72  A    between atoms: _163  and  _164
REMARK   73  A    between atoms: _164  and  _165
REMARK   74  A    between atoms: _168  and  _170
REMARK   75  A    between atoms: _170  and  _171
REMARK   76  A    between atoms: _170  and  _173
REMARK   77  A    between atoms: _176  and  _178
REMARK   78  A    between atoms: _178  and  _179
REMARK   79  A    between atoms: _178  and  _181
REMARK   80  A    between atoms: _181  and  _182
REMARK   81  A    between atoms: _185  and  _187
REMARK   82  A    between atoms: _187  and  _188
REMARK   83  A    between atoms: _187  and  _190
REMARK   84  A    between atoms: _190  and  _191
REMARK   85  A    between atoms: _191  and  _192
REMARK   86  A    between atoms: _194  and  _196
REMARK   87  A    between atoms: _196  and  _197
REMARK   88  A    between atoms: _196  and  _199
REMARK   89  A    between atoms: _199  and  _200
REMARK   90  A    between atoms: _200  and  _201
REMARK   91  A    between atoms: _201  and  _202
REMARK   92  A    between atoms: _202  and  _203
REMARK   93  A    between atoms: _207  and  _209
REMARK   94  A    between atoms: _209  and  _210
REMARK   95  A    between atoms: _209  and  _212
REMARK   96  A    between atoms: _212  and  _213
REMARK   97  A    between atoms: _216  and  _218
REMARK   98  A    between atoms: _218  and  _219
REMARK   99  A    between atoms: _218  and  _221
REMARK  100  A    between atoms: _221  and  _222
REMARK  101  A    between atoms: _227  and  _228
REMARK  102  A    between atoms: _230  and  _232
REMARK  103  A    between atoms: _232  and  _233
REMARK  104  A    between atoms: _232  and  _235
REMARK  105  A    between atoms: _235  and  _236
REMARK  106  A    between atoms: _236  and  _237
REMARK  107  A    between atoms: _240  and  _242
REMARK  108  A    between atoms: _242  and  _243
REMARK  109  A    between atoms: _242  and  _245
REMARK  110  A    between atoms: _245  and  _246
REMARK  111  A    between atoms: _252  and  _254
REMARK  112  A    between atoms: _254  and  _255
REMARK  113  A    between atoms: _254  and  _257
REMARK  114  A    between atoms: _257  and  _258
REMARK  115  A    between atoms: _263  and  _264
REMARK  116  A    between atoms: _266  and  _268
REMARK  117  A    between atoms: _268  and  _269
REMARK  118  A    between atoms: _268  and  _271
REMARK  119  A    between atoms: _271  and  _272
REMARK  120  A    between atoms: _275  and  _277
REMARK  121  A    between atoms: _277  and  _278
REMARK  122  A    between atoms: _277  and  _280
REMARK  123  A    between atoms: _283  and  _285
REMARK  124  A    between atoms: _285  and  _286
REMARK  125  A    between atoms: _288  and  _290
REMARK  126  A    between atoms: _290  and  _291
REMARK  127  A    between atoms: _290  and  _293
REMARK  128  A    between atoms: _293  and  _294
REMARK  129  A    between atoms: _294  and  _295
REMARK  130  A    between atoms: _298  and  _300
REMARK  131  A    between atoms: _300  and  _301
REMARK  132  A    between atoms: _300  and  _303
REMARK  133  A    between atoms: _306  and  _308
REMARK  134  A    between atoms: _308  and  _309
REMARK  135  A    between atoms: _308  and  _311
REMARK  136  A    between atoms: _311  and  _312
REMARK  137  A    between atoms: _317  and  _318
REMARK  138  A    between atoms: _320  and  _322
REMARK  139  A    between atoms: _322  and  _323
REMARK  140  A    between atoms: _322  and  _325
REMARK  141  A    between atoms: _325  and  _326
REMARK  142  A    between atoms: _329  and  _331
REMARK  143  A    between atoms: _331  and  _332
REMARK  144  A    between atoms: _334  and  _336
REMARK  145  A    between atoms: _336  and  _337
REMARK  146  A    between atoms: _339  and  _341
REMARK  147  A    between atoms: _341  and  _342
REMARK  148  A    between atoms: _341  and  _344
REMARK  149  A    between atoms: _344  and  _345
REMARK  150  A    between atoms: _345  and  _346
REMARK  151  A    between atoms: _349  and  _351
REMARK  152  A    between atoms: _351  and  _352
REMARK  153  A    between atoms: _351  and  _354
REMARK  154  A    between atoms: _354  and  _355
REMARK  155  A    between atoms: _358  and  _360
REMARK  156  A    between atoms: _360  and  _361
REMARK  157  A    between atoms: _360  and  _363
REMARK  158  A    between atoms: _363  and  _364
REMARK  159  A    between atoms: _367  and  _369
REMARK  160  A    between atoms: _369  and  _370
REMARK  161  A    between atoms: _369  and  _372
REMARK  162  A    between atoms: _372  and  _373
REMARK  163  A    between atoms: _373  and  _374
REMARK  164  A    between atoms: _377  and  _379
REMARK  165  A    between atoms: _379  and  _380
REMARK  166  A    between atoms: _379  and  _382
REMARK  167  A    between atoms: _382  and  _383
REMARK  168  A    between atoms: _388  and  _390
REMARK  169  A    between atoms: _390  and  _391
REMARK  170  A    between atoms: _390  and  _393
REMARK  171  A    between atoms: _393  and  _394
REMARK  172  A    between atoms: _397  and  _399
REMARK  173  A    between atoms: _399  and  _400
REMARK  174  A    between atoms: _399  and  _402
REMARK  175  A    between atoms: _402  and  _403
REMARK  176  A    between atoms: _406  and  _408
REMARK  177  A    between atoms: _408  and  _409
REMARK  178  A    between atoms: _408  and  _411
REMARK  179  A    between atoms: _411  and  _412
REMARK  180  A    between atoms: _415  and  _417
REMARK  181  A    between atoms: _417  and  _418
REMARK  182  A    between atoms: _417  and  _420
REMARK  183  A    between atoms: _420  and  _421
REMARK  184  A    between atoms: _421  and  _422
REMARK  185  A    between atoms: _425  and  _427
REMARK  186  A    between atoms: _427  and  _428
REMARK  187  A    between atoms: _427  and  _430
REMARK  188  A    between atoms: _430  and  _431
REMARK  189  A    between atoms: _431  and  _432
REMARK  190  A    between atoms: _432  and  _433
REMARK  191  A    between atoms: _442  and  _444
REMARK  192  A    between atoms: _444  and  _445
REMARK  193  A    between atoms: _444  and  _447
REMARK  194  A    between atoms: _447  and  _448
REMARK  195  A    between atoms: _451  and  _453
REMARK  196  A    between atoms: _453  and  _454
REMARK  197  A    between atoms: _453  and  _456
REMARK  198  A    between atoms: _456  and  _457
REMARK  199  A    between atoms: _460  and  _462
REMARK  200  A    between atoms: _462  and  _463
REMARK  201  A    between atoms: _462  and  _465
REMARK  202  A    between atoms: _465  and  _466
REMARK  203  A    between atoms: _469  and  _471
REMARK  204  A    between atoms: _471  and  _472
REMARK  205  A    between atoms: _471  and  _474
REMARK  206  A    between atoms: _474  and  _475
REMARK  207  A    between atoms: _481  and  _483
REMARK  208  A    between atoms: _483  and  _484
REMARK  209  A    between atoms: _486  and  _488
REMARK  210  A    between atoms: _488  and  _489
REMARK  211  A    between atoms: _488  and  _491
REMARK  212  A    between atoms: _491  and  _492
REMARK  213  A    between atoms: _495  and  _497
REMARK  214  A    between atoms: _497  and  _498
REMARK  215  A    between atoms: _497  and  _500
REMARK  216  A    between atoms: _500  and  _501
REMARK  217  A    between atoms: _503  and  _505
REMARK  218  A    between atoms: _505  and  _506
REMARK  219  A    between atoms: _505  and  _508
REMARK  220  A    between atoms: _508  and  _509
REMARK  221  A    between atoms: _515  and  _517
REMARK  222  A    between atoms: _517  and  _518
REMARK  223  A    between atoms: _517  and  _520
REMARK  224  A    between atoms: _520  and  _521
REMARK  225  A    between atoms: _521  and  _522
REMARK  226  A    between atoms: _522  and  _523
REMARK  227  A    between atoms: _523  and  _524
REMARK  228  A    between atoms: _528  and  _530
REMARK  229  A    between atoms: _530  and  _531
REMARK  230  A    between atoms: _530  and  _533
REMARK  231  A    between atoms: _533  and  _534
REMARK  232  A    between atoms: _534  and  _535
REMARK                            x       y       z     vdW  Elec       q    Type
REMARK                         _______ _______ _______ _____ _____    ______ ____
ROOT
ATOM      1  O   HOH     1       4.177  19.550  59.317  0.00  0.00    +0.000 OA
ENDROOT
TORSDOF 0
