REMARK  Name = ../refined-set-2016/3lcv/3lcv_pocket.pdb
REMARK  235 active torsions:
REMARK  status: ('A' for Active; 'I' for Inactive)
REMARK    1  A    between atoms: _1  and  _3
REMARK    2  A    between atoms: _3  and  _4
REMARK    3  A    between atoms: _3  and  _6
REMARK    4  A    between atoms: _9  and  _11
REMARK    5  A    between atoms: _11  and  _12
REMARK    6  A    between atoms: _15  and  _17
REMARK    7  A    between atoms: _17  and  _18
REMARK    8  A    between atoms: _17  and  _20
REMARK    9  A    between atoms: _20  and  _21
REMARK   10  A    between atoms: _24  and  _26
REMARK   11  A    between atoms: _26  and  _27
REMARK   12  A    between atoms: _26  and  _29
REMARK   13  A    between atoms: _29  and  _30
REMARK   14  A    between atoms: _30  and  _31
REMARK   15  A    between atoms: _31  and  _32
REMARK   16  A    between atoms: _41  and  _43
REMARK   17  A    between atoms: _43  and  _44
REMARK   18  A    between atoms: _43  and  _46
REMARK   19  A    between atoms: _46  and  _47
REMARK   20  A    between atoms: _50  and  _52
REMARK   21  A    between atoms: _52  and  _53
REMARK   22  A    between atoms: _55  and  _57
REMARK   23  A    between atoms: _57  and  _58
REMARK   24  A    between atoms: _57  and  _60
REMARK   25  A    between atoms: _60  and  _61
REMARK   26  A    between atoms: _64  and  _66
REMARK   27  A    between atoms: _66  and  _67
REMARK   28  A    between atoms: _66  and  _69
REMARK   29  A    between atoms: _69  and  _70
REMARK   30  A    between atoms: _70  and  _71
REMARK   31  A    between atoms: _74  and  _76
REMARK   32  A    between atoms: _76  and  _77
REMARK   33  A    between atoms: _76  and  _79
REMARK   34  A    between atoms: _79  and  _80
REMARK   35  A    between atoms: _83  and  _85
REMARK   36  A    between atoms: _85  and  _86
REMARK   37  A    between atoms: _85  and  _88
REMARK   38  A    between atoms: _88  and  _89
REMARK   39  A    between atoms: _94  and  _95
REMARK   40  A    between atoms: _97  and  _99
REMARK   41  A    between atoms: _99  and  _100
REMARK   42  A    between atoms: _102  and  _104
REMARK   43  A    between atoms: _104  and  _105
REMARK   44  A    between atoms: _108  and  _110
REMARK   45  A    between atoms: _110  and  _111
REMARK   46  A    between atoms: _110  and  _113
REMARK   47  A    between atoms: _113  and  _114
REMARK   48  A    between atoms: _120  and  _122
REMARK   49  A    between atoms: _122  and  _123
REMARK   50  A    between atoms: _122  and  _125
REMARK   51  A    between atoms: _125  and  _126
REMARK   52  A    between atoms: _129  and  _131
REMARK   53  A    between atoms: _131  and  _132
REMARK   54  A    between atoms: _131  and  _134
REMARK   55  A    between atoms: _134  and  _135
REMARK   56  A    between atoms: _135  and  _136
REMARK   57  A    between atoms: _138  and  _140
REMARK   58  A    between atoms: _140  and  _141
REMARK   59  A    between atoms: _140  and  _143
REMARK   60  A    between atoms: _143  and  _144
REMARK   61  A    between atoms: _149  and  _151
REMARK   62  A    between atoms: _151  and  _152
REMARK   63  A    between atoms: _151  and  _154
REMARK   64  A    between atoms: _154  and  _155
REMARK   65  A    between atoms: _158  and  _160
REMARK   66  A    between atoms: _160  and  _161
REMARK   67  A    between atoms: _160  and  _163
REMARK   68  A    between atoms: _163  and  _164
REMARK   69  A    between atoms: _166  and  _168
REMARK   70  A    between atoms: _168  and  _169
REMARK   71  A    between atoms: _168  and  _171
REMARK   72  A    between atoms: _171  and  _172
REMARK   73  A    between atoms: _175  and  _177
REMARK   74  A    between atoms: _177  and  _178
REMARK   75  A    between atoms: _177  and  _180
REMARK   76  A    between atoms: _180  and  _181
REMARK   77  A    between atoms: _181  and  _182
REMARK   78  A    between atoms: _182  and  _183
REMARK   79  A    between atoms: _192  and  _194
REMARK   80  A    between atoms: _194  and  _195
REMARK   81  A    between atoms: _194  and  _197
REMARK   82  A    between atoms: _197  and  _198
REMARK   83  A    between atoms: _198  and  _199
REMARK   84  A    between atoms: _202  and  _204
REMARK   85  A    between atoms: _204  and  _205
REMARK   86  A    between atoms: _204  and  _207
REMARK   87  A    between atoms: _207  and  _208
REMARK   88  A    between atoms: _208  and  _209
REMARK   89  A    between atoms: _209  and  _210
REMARK   90  A    between atoms: _219  and  _221
REMARK   91  A    between atoms: _221  and  _222
REMARK   92  A    between atoms: _221  and  _224
REMARK   93  A    between atoms: _224  and  _225
REMARK   94  A    between atoms: _228  and  _230
REMARK   95  A    between atoms: _230  and  _231
REMARK   96  A    between atoms: _230  and  _233
REMARK   97  A    between atoms: _233  and  _234
REMARK   98  A    between atoms: _240  and  _242
REMARK   99  A    between atoms: _242  and  _243
REMARK  100  A    between atoms: _242  and  _245
REMARK  101  A    between atoms: _245  and  _246
REMARK  102  A    between atoms: _251  and  _252
REMARK  103  A    between atoms: _254  and  _256
REMARK  104  A    between atoms: _256  and  _257
REMARK  105  A    between atoms: _256  and  _259
REMARK  106  A    between atoms: _259  and  _260
REMARK  107  A    between atoms: _263  and  _265
REMARK  108  A    between atoms: _265  and  _266
REMARK  109  A    between atoms: _265  and  _268
REMARK  110  A    between atoms: _268  and  _269
REMARK  111  A    between atoms: _272  and  _274
REMARK  112  A    between atoms: _274  and  _275
REMARK  113  A    between atoms: _278  and  _280
REMARK  114  A    between atoms: _280  and  _281
REMARK  115  A    between atoms: _280  and  _283
REMARK  116  A    between atoms: _285  and  _287
REMARK  117  A    between atoms: _287  and  _288
REMARK  118  A    between atoms: _290  and  _292
REMARK  119  A    between atoms: _292  and  _293
REMARK  120  A    between atoms: _292  and  _295
REMARK  121  A    between atoms: _295  and  _296
REMARK  122  A    between atoms: _299  and  _301
REMARK  123  A    between atoms: _301  and  _302
REMARK  124  A    between atoms: _301  and  _304
REMARK  125  A    between atoms: _304  and  _305
REMARK  126  A    between atoms: _311  and  _312
REMARK  127  A    between atoms: _317  and  _319
REMARK  128  A    between atoms: _319  and  _320
REMARK  129  A    between atoms: _319  and  _322
REMARK  130  A    between atoms: _322  and  _323
REMARK  131  A    between atoms: _326  and  _328
REMARK  132  A    between atoms: _328  and  _329
REMARK  133  A    between atoms: _328  and  _331
REMARK  134  A    between atoms: _331  and  _332
REMARK  135  A    between atoms: _337  and  _338
REMARK  136  A    between atoms: _340  and  _342
REMARK  137  A    between atoms: _342  and  _343
REMARK  138  A    between atoms: _342  and  _345
REMARK  139  A    between atoms: _345  and  _346
REMARK  140  A    between atoms: _348  and  _350
REMARK  141  A    between atoms: _350  and  _351
REMARK  142  A    between atoms: _350  and  _353
REMARK  143  A    between atoms: _353  and  _354
REMARK  144  A    between atoms: _357  and  _359
REMARK  145  A    between atoms: _359  and  _360
REMARK  146  A    between atoms: _359  and  _362
REMARK  147  A    between atoms: _362  and  _363
REMARK  148  A    between atoms: _366  and  _368
REMARK  149  A    between atoms: _368  and  _369
REMARK  150  A    between atoms: _368  and  _371
REMARK  151  A    between atoms: _371  and  _372
REMARK  152  A    between atoms: _375  and  _377
REMARK  153  A    between atoms: _377  and  _378
REMARK  154  A    between atoms: _377  and  _380
REMARK  155  A    between atoms: _380  and  _381
REMARK  156  A    between atoms: _384  and  _386
REMARK  157  A    between atoms: _386  and  _387
REMARK  158  A    between atoms: _386  and  _389
REMARK  159  A    between atoms: _392  and  _394
REMARK  160  A    between atoms: _394  and  _395
REMARK  161  A    between atoms: _398  and  _400
REMARK  162  A    between atoms: _400  and  _401
REMARK  163  A    between atoms: _400  and  _403
REMARK  164  A    between atoms: _403  and  _404
REMARK  165  A    between atoms: _407  and  _409
REMARK  166  A    between atoms: _409  and  _410
REMARK  167  A    between atoms: _409  and  _412
REMARK  168  A    between atoms: _412  and  _413
REMARK  169  A    between atoms: _416  and  _418
REMARK  170  A    between atoms: _418  and  _419
REMARK  171  A    between atoms: _418  and  _421
REMARK  172  A    between atoms: _421  and  _422
REMARK  173  A    between atoms: _425  and  _427
REMARK  174  A    between atoms: _427  and  _428
REMARK  175  A    between atoms: _427  and  _430
REMARK  176  A    between atoms: _430  and  _431
REMARK  177  A    between atoms: _431  and  _432
REMARK  178  A    between atoms: _435  and  _437
REMARK  179  A    between atoms: _437  and  _438
REMARK  180  A    between atoms: _437  and  _440
REMARK  181  A    between atoms: _440  and  _441
REMARK  182  A    between atoms: _444  and  _446
REMARK  183  A    between atoms: _446  and  _447
REMARK  184  A    between atoms: _446  and  _449
REMARK  185  A    between atoms: _449  and  _450
REMARK  186  A    between atoms: _453  and  _455
REMARK  187  A    between atoms: _455  and  _456
REMARK  188  A    between atoms: _455  and  _458
REMARK  189  A    between atoms: _458  and  _459
REMARK  190  A    between atoms: _462  and  _464
REMARK  191  A    between atoms: _464  and  _465
REMARK  192  A    between atoms: _464  and  _467
REMARK  193  A    between atoms: _467  and  _468
REMARK  194  A    between atoms: _471  and  _473
REMARK  195  A    between atoms: _473  and  _474
REMARK  196  A    between atoms: _473  and  _476
REMARK  197  A    between atoms: _476  and  _477
REMARK  198  A    between atoms: _477  and  _478
REMARK  199  A    between atoms: _478  and  _479
REMARK  200  A    between atoms: _479  and  _480
REMARK  201  A    between atoms: _484  and  _486
REMARK  202  A    between atoms: _486  and  _487
REMARK  203  A    between atoms: _486  and  _489
REMARK  204  A    between atoms: _489  and  _490
REMARK  205  A    between atoms: _493  and  _495
REMARK  206  A    between atoms: _495  and  _496
REMARK  207  A    between atoms: _495  and  _498
REMARK  208  A    between atoms: _498  and  _499
REMARK  209  A    between atoms: _503  and  _504
REMARK  210  A    between atoms: _509  and  _511
REMARK  211  A    between atoms: _511  and  _512
REMARK  212  A    between atoms: _511  and  _514
REMARK  213  A    between atoms: _516  and  _518
REMARK  214  A    between atoms: _518  and  _519
REMARK  215  A    between atoms: _518  and  _521
REMARK  216  A    between atoms: _521  and  _522
REMARK  217  A    between atoms: _525  and  _527
REMARK  218  A    between atoms: _527  and  _528
REMARK  219  A    between atoms: _527  and  _530
REMARK  220  A    between atoms: _530  and  _531
REMARK  221  A    between atoms: _531  and  _532
REMARK  222  A    between atoms: _537  and  _539
REMARK  223  A    between atoms: _539  and  _540
REMARK  224  A    between atoms: _539  and  _542
REMARK  225  A    between atoms: _542  and  _543
REMARK  226  A    between atoms: _545  and  _547
REMARK  227  A    between atoms: _547  and  _548
REMARK  228  A    between atoms: _547  and  _550
REMARK  229  A    between atoms: _550  and  _551
REMARK  230  A    between atoms: _555  and  _556
REMARK  231  A    between atoms: _561  and  _563
REMARK  232  A    between atoms: _563  and  _564
REMARK  233  A    between atoms: _563  and  _566
REMARK  234  A    between atoms: _566  and  _567
REMARK  235  A    between atoms: _567  and  _568
REMARK                            x       y       z     vdW  Elec       q    Type
REMARK                         _______ _______ _______ _____ _____    ______ ____
ROOT
ATOM      1  C   VAL A   1       8.518  13.991  17.634  0.00  0.00    +0.238 C 
ATOM      2  N   ALA A   2       9.567  13.222  17.901  0.00  0.00    -0.298 N 
ATOM      3  H   ALA A   2       9.420  12.213  18.104  0.00  0.00    +0.150 HD
ATOM      4  O   VAL A   1       8.625  15.198  17.401  0.00  0.00    -0.274 OA
ENDROOT
BRANCH   2   5
ATOM      5  CA  ALA A   2      10.918  13.763  17.915  0.00  0.00    +0.137 C 
ATOM      6  CB  ALA A   2      11.914  12.645  18.099  0.00  0.00    +0.030 C 
BRANCH   5   7
ATOM      7  C   ALA A   2      11.240  14.531  16.634  0.00  0.00    +0.227 C 
ATOM      8  O   ALA A   2      11.062  14.015  15.525  0.00  0.00    -0.286 OA
ENDBRANCH   5   7
ENDBRANCH   2   5
BRANCH   1   9
ATOM      9  CA  VAL A   1       7.141  13.315  17.646  0.00  0.00    +0.145 C 
BRANCH   9  10
ATOM     10  CB  VAL A   1       6.827  12.798  16.215  0.00  0.00    +0.025 C 
ATOM     11  CG2 VAL A   1       5.479  12.081  16.186  0.00  0.00    +0.002 C 
ATOM     12  CG1 VAL A   1       7.926  11.852  15.764  0.00  0.00    +0.002 C 
ENDBRANCH   9  10
BRANCH   9  13
ATOM     13  N   VAL A   1       6.174  14.313  18.097  0.00  0.00    -0.238 NA
ATOM     14  H   VAL A   1       5.436  14.653  17.448  0.00  0.00    +0.142 HD
ENDBRANCH   9  13
ENDBRANCH   1   9
TORSDOF 5
REMARK  Name = ../refined-set-2016/3lcv/3lcv_pocket.pdb
REMARK  235 active torsions:
REMARK  status: ('A' for Active; 'I' for Inactive)
REMARK    1  A    between atoms: _1  and  _3
REMARK    2  A    between atoms: _3  and  _4
REMARK    3  A    between atoms: _3  and  _6
REMARK    4  A    between atoms: _9  and  _11
REMARK    5  A    between atoms: _11  and  _12
REMARK    6  A    between atoms: _15  and  _17
REMARK    7  A    between atoms: _17  and  _18
REMARK    8  A    between atoms: _17  and  _20
REMARK    9  A    between atoms: _20  and  _21
REMARK   10  A    between atoms: _24  and  _26
REMARK   11  A    between atoms: _26  and  _27
REMARK   12  A    between atoms: _26  and  _29
REMARK   13  A    between atoms: _29  and  _30
REMARK   14  A    between atoms: _30  and  _31
REMARK   15  A    between atoms: _31  and  _32
REMARK   16  A    between atoms: _41  and  _43
REMARK   17  A    between atoms: _43  and  _44
REMARK   18  A    between atoms: _43  and  _46
REMARK   19  A    between atoms: _46  and  _47
REMARK   20  A    between atoms: _50  and  _52
REMARK   21  A    between atoms: _52  and  _53
REMARK   22  A    between atoms: _55  and  _57
REMARK   23  A    between atoms: _57  and  _58
REMARK   24  A    between atoms: _57  and  _60
REMARK   25  A    between atoms: _60  and  _61
REMARK   26  A    between atoms: _64  and  _66
REMARK   27  A    between atoms: _66  and  _67
REMARK   28  A    between atoms: _66  and  _69
REMARK   29  A    between atoms: _69  and  _70
REMARK   30  A    between atoms: _70  and  _71
REMARK   31  A    between atoms: _74  and  _76
REMARK   32  A    between atoms: _76  and  _77
REMARK   33  A    between atoms: _76  and  _79
REMARK   34  A    between atoms: _79  and  _80
REMARK   35  A    between atoms: _83  and  _85
REMARK   36  A    between atoms: _85  and  _86
REMARK   37  A    between atoms: _85  and  _88
REMARK   38  A    between atoms: _88  and  _89
REMARK   39  A    between atoms: _94  and  _95
REMARK   40  A    between atoms: _97  and  _99
REMARK   41  A    between atoms: _99  and  _100
REMARK   42  A    between atoms: _102  and  _104
REMARK   43  A    between atoms: _104  and  _105
REMARK   44  A    between atoms: _108  and  _110
REMARK   45  A    between atoms: _110  and  _111
REMARK   46  A    between atoms: _110  and  _113
REMARK   47  A    between atoms: _113  and  _114
REMARK   48  A    between atoms: _120  and  _122
REMARK   49  A    between atoms: _122  and  _123
REMARK   50  A    between atoms: _122  and  _125
REMARK   51  A    between atoms: _125  and  _126
REMARK   52  A    between atoms: _129  and  _131
REMARK   53  A    between atoms: _131  and  _132
REMARK   54  A    between atoms: _131  and  _134
REMARK   55  A    between atoms: _134  and  _135
REMARK   56  A    between atoms: _135  and  _136
REMARK   57  A    between atoms: _138  and  _140
REMARK   58  A    between atoms: _140  and  _141
REMARK   59  A    between atoms: _140  and  _143
REMARK   60  A    between atoms: _143  and  _144
REMARK   61  A    between atoms: _149  and  _151
REMARK   62  A    between atoms: _151  and  _152
REMARK   63  A    between atoms: _151  and  _154
REMARK   64  A    between atoms: _154  and  _155
REMARK   65  A    between atoms: _158  and  _160
REMARK   66  A    between atoms: _160  and  _161
REMARK   67  A    between atoms: _160  and  _163
REMARK   68  A    between atoms: _163  and  _164
REMARK   69  A    between atoms: _166  and  _168
REMARK   70  A    between atoms: _168  and  _169
REMARK   71  A    between atoms: _168  and  _171
REMARK   72  A    between atoms: _171  and  _172
REMARK   73  A    between atoms: _175  and  _177
REMARK   74  A    between atoms: _177  and  _178
REMARK   75  A    between atoms: _177  and  _180
REMARK   76  A    between atoms: _180  and  _181
REMARK   77  A    between atoms: _181  and  _182
REMARK   78  A    between atoms: _182  and  _183
REMARK   79  A    between atoms: _192  and  _194
REMARK   80  A    between atoms: _194  and  _195
REMARK   81  A    between atoms: _194  and  _197
REMARK   82  A    between atoms: _197  and  _198
REMARK   83  A    between atoms: _198  and  _199
REMARK   84  A    between atoms: _202  and  _204
REMARK   85  A    between atoms: _204  and  _205
REMARK   86  A    between atoms: _204  and  _207
REMARK   87  A    between atoms: _207  and  _208
REMARK   88  A    between atoms: _208  and  _209
REMARK   89  A    between atoms: _209  and  _210
REMARK   90  A    between atoms: _219  and  _221
REMARK   91  A    between atoms: _221  and  _222
REMARK   92  A    between atoms: _221  and  _224
REMARK   93  A    between atoms: _224  and  _225
REMARK   94  A    between atoms: _228  and  _230
REMARK   95  A    between atoms: _230  and  _231
REMARK   96  A    between atoms: _230  and  _233
REMARK   97  A    between atoms: _233  and  _234
REMARK   98  A    between atoms: _240  and  _242
REMARK   99  A    between atoms: _242  and  _243
REMARK  100  A    between atoms: _242  and  _245
REMARK  101  A    between atoms: _245  and  _246
REMARK  102  A    between atoms: _251  and  _252
REMARK  103  A    between atoms: _254  and  _256
REMARK  104  A    between atoms: _256  and  _257
REMARK  105  A    between atoms: _256  and  _259
REMARK  106  A    between atoms: _259  and  _260
REMARK  107  A    between atoms: _263  and  _265
REMARK  108  A    between atoms: _265  and  _266
REMARK  109  A    between atoms: _265  and  _268
REMARK  110  A    between atoms: _268  and  _269
REMARK  111  A    between atoms: _272  and  _274
REMARK  112  A    between atoms: _274  and  _275
REMARK  113  A    between atoms: _278  and  _280
REMARK  114  A    between atoms: _280  and  _281
REMARK  115  A    between atoms: _280  and  _283
REMARK  116  A    between atoms: _285  and  _287
REMARK  117  A    between atoms: _287  and  _288
REMARK  118  A    between atoms: _290  and  _292
REMARK  119  A    between atoms: _292  and  _293
REMARK  120  A    between atoms: _292  and  _295
REMARK  121  A    between atoms: _295  and  _296
REMARK  122  A    between atoms: _299  and  _301
REMARK  123  A    between atoms: _301  and  _302
REMARK  124  A    between atoms: _301  and  _304
REMARK  125  A    between atoms: _304  and  _305
REMARK  126  A    between atoms: _311  and  _312
REMARK  127  A    between atoms: _317  and  _319
REMARK  128  A    between atoms: _319  and  _320
REMARK  129  A    between atoms: _319  and  _322
REMARK  130  A    between atoms: _322  and  _323
REMARK  131  A    between atoms: _326  and  _328
REMARK  132  A    between atoms: _328  and  _329
REMARK  133  A    between atoms: _328  and  _331
REMARK  134  A    between atoms: _331  and  _332
REMARK  135  A    between atoms: _337  and  _338
REMARK  136  A    between atoms: _340  and  _342
REMARK  137  A    between atoms: _342  and  _343
REMARK  138  A    between atoms: _342  and  _345
REMARK  139  A    between atoms: _345  and  _346
REMARK  140  A    between atoms: _348  and  _350
REMARK  141  A    between atoms: _350  and  _351
REMARK  142  A    between atoms: _350  and  _353
REMARK  143  A    between atoms: _353  and  _354
REMARK  144  A    between atoms: _357  and  _359
REMARK  145  A    between atoms: _359  and  _360
REMARK  146  A    between atoms: _359  and  _362
REMARK  147  A    between atoms: _362  and  _363
REMARK  148  A    between atoms: _366  and  _368
REMARK  149  A    between atoms: _368  and  _369
REMARK  150  A    between atoms: _368  and  _371
REMARK  151  A    between atoms: _371  and  _372
REMARK  152  A    between atoms: _375  and  _377
REMARK  153  A    between atoms: _377  and  _378
REMARK  154  A    between atoms: _377  and  _380
REMARK  155  A    between atoms: _380  and  _381
REMARK  156  A    between atoms: _384  and  _386
REMARK  157  A    between atoms: _386  and  _387
REMARK  158  A    between atoms: _386  and  _389
REMARK  159  A    between atoms: _392  and  _394
REMARK  160  A    between atoms: _394  and  _395
REMARK  161  A    between atoms: _398  and  _400
REMARK  162  A    between atoms: _400  and  _401
REMARK  163  A    between atoms: _400  and  _403
REMARK  164  A    between atoms: _403  and  _404
REMARK  165  A    between atoms: _407  and  _409
REMARK  166  A    between atoms: _409  and  _410
REMARK  167  A    between atoms: _409  and  _412
REMARK  168  A    between atoms: _412  and  _413
REMARK  169  A    between atoms: _416  and  _418
REMARK  170  A    between atoms: _418  and  _419
REMARK  171  A    between atoms: _418  and  _421
REMARK  172  A    between atoms: _421  and  _422
REMARK  173  A    between atoms: _425  and  _427
REMARK  174  A    between atoms: _427  and  _428
REMARK  175  A    between atoms: _427  and  _430
REMARK  176  A    between atoms: _430  and  _431
REMARK  177  A    between atoms: _431  and  _432
REMARK  178  A    between atoms: _435  and  _437
REMARK  179  A    between atoms: _437  and  _438
REMARK  180  A    between atoms: _437  and  _440
REMARK  181  A    between atoms: _440  and  _441
REMARK  182  A    between atoms: _444  and  _446
REMARK  183  A    between atoms: _446  and  _447
REMARK  184  A    between atoms: _446  and  _449
REMARK  185  A    between atoms: _449  and  _450
REMARK  186  A    between atoms: _453  and  _455
REMARK  187  A    between atoms: _455  and  _456
REMARK  188  A    between atoms: _455  and  _458
REMARK  189  A    between atoms: _458  and  _459
REMARK  190  A    between atoms: _462  and  _464
REMARK  191  A    between atoms: _464  and  _465
REMARK  192  A    between atoms: _464  and  _467
REMARK  193  A    between atoms: _467  and  _468
REMARK  194  A    between atoms: _471  and  _473
REMARK  195  A    between atoms: _473  and  _474
REMARK  196  A    between atoms: _473  and  _476
REMARK  197  A    between atoms: _476  and  _477
REMARK  198  A    between atoms: _477  and  _478
REMARK  199  A    between atoms: _478  and  _479
REMARK  200  A    between atoms: _479  and  _480
REMARK  201  A    between atoms: _484  and  _486
REMARK  202  A    between atoms: _486  and  _487
REMARK  203  A    between atoms: _486  and  _489
REMARK  204  A    between atoms: _489  and  _490
REMARK  205  A    between atoms: _493  and  _495
REMARK  206  A    between atoms: _495  and  _496
REMARK  207  A    between atoms: _495  and  _498
REMARK  208  A    between atoms: _498  and  _499
REMARK  209  A    between atoms: _503  and  _504
REMARK  210  A    between atoms: _509  and  _511
REMARK  211  A    between atoms: _511  and  _512
REMARK  212  A    between atoms: _511  and  _514
REMARK  213  A    between atoms: _516  and  _518
REMARK  214  A    between atoms: _518  and  _519
REMARK  215  A    between atoms: _518  and  _521
REMARK  216  A    between atoms: _521  and  _522
REMARK  217  A    between atoms: _525  and  _527
REMARK  218  A    between atoms: _527  and  _528
REMARK  219  A    between atoms: _527  and  _530
REMARK  220  A    between atoms: _530  and  _531
REMARK  221  A    between atoms: _531  and  _532
REMARK  222  A    between atoms: _537  and  _539
REMARK  223  A    between atoms: _539  and  _540
REMARK  224  A    between atoms: _539  and  _542
REMARK  225  A    between atoms: _542  and  _543
REMARK  226  A    between atoms: _545  and  _547
REMARK  227  A    between atoms: _547  and  _548
REMARK  228  A    between atoms: _547  and  _550
REMARK  229  A    between atoms: _550  and  _551
REMARK  230  A    between atoms: _555  and  _556
REMARK  231  A    between atoms: _561  and  _563
REMARK  232  A    between atoms: _563  and  _564
REMARK  233  A    between atoms: _563  and  _566
REMARK  234  A    between atoms: _566  and  _567
REMARK  235  A    between atoms: _567  and  _568
REMARK                            x       y       z     vdW  Elec       q    Type
REMARK                         _______ _______ _______ _____ _____    ______ ____
ROOT
ATOM      1  CA  THR A   1      12.453  11.772  13.306  0.00  0.00    +0.160 C 
ENDROOT
BRANCH   1   2
ATOM      2  N   THR A   1      13.217  12.728  14.100  0.00  0.00    -0.237 NA
ATOM      3  H   THR A   1      12.913  12.922  15.075  0.00  0.00    +0.142 HD
ENDBRANCH   1   2
BRANCH   1   4
ATOM      4  CB  THR A   1      11.493  10.972  14.202  0.00  0.00    +0.134 C 
ATOM      5  CG2 THR A   1      10.687   9.969  13.390  0.00  0.00    +0.034 C 
BRANCH   4   6
ATOM      6  OG1 THR A   1      12.260  10.274  15.186  0.00  0.00    -0.383 OA
ATOM      7  HG1 THR A   1      12.892   9.659  14.735  0.00  0.00    +0.210 HD
ENDBRANCH   4   6
ENDBRANCH   1   4
BRANCH   1   8
ATOM      8  C   THR A   1      11.650  12.422  12.186  0.00  0.00    +0.227 C 
ATOM      9  O   THR A   1      11.629  11.917  11.064  0.00  0.00    -0.287 OA
ENDBRANCH   1   8
TORSDOF 4
REMARK  Name = ../refined-set-2016/3lcv/3lcv_pocket.pdb
REMARK  235 active torsions:
REMARK  status: ('A' for Active; 'I' for Inactive)
REMARK    1  A    between atoms: _1  and  _3
REMARK    2  A    between atoms: _3  and  _4
REMARK    3  A    between atoms: _3  and  _6
REMARK    4  A    between atoms: _9  and  _11
REMARK    5  A    between atoms: _11  and  _12
REMARK    6  A    between atoms: _15  and  _17
REMARK    7  A    between atoms: _17  and  _18
REMARK    8  A    between atoms: _17  and  _20
REMARK    9  A    between atoms: _20  and  _21
REMARK   10  A    between atoms: _24  and  _26
REMARK   11  A    between atoms: _26  and  _27
REMARK   12  A    between atoms: _26  and  _29
REMARK   13  A    between atoms: _29  and  _30
REMARK   14  A    between atoms: _30  and  _31
REMARK   15  A    between atoms: _31  and  _32
REMARK   16  A    between atoms: _41  and  _43
REMARK   17  A    between atoms: _43  and  _44
REMARK   18  A    between atoms: _43  and  _46
REMARK   19  A    between atoms: _46  and  _47
REMARK   20  A    between atoms: _50  and  _52
REMARK   21  A    between atoms: _52  and  _53
REMARK   22  A    between atoms: _55  and  _57
REMARK   23  A    between atoms: _57  and  _58
REMARK   24  A    between atoms: _57  and  _60
REMARK   25  A    between atoms: _60  and  _61
REMARK   26  A    between atoms: _64  and  _66
REMARK   27  A    between atoms: _66  and  _67
REMARK   28  A    between atoms: _66  and  _69
REMARK   29  A    between atoms: _69  and  _70
REMARK   30  A    between atoms: _70  and  _71
REMARK   31  A    between atoms: _74  and  _76
REMARK   32  A    between atoms: _76  and  _77
REMARK   33  A    between atoms: _76  and  _79
REMARK   34  A    between atoms: _79  and  _80
REMARK   35  A    between atoms: _83  and  _85
REMARK   36  A    between atoms: _85  and  _86
REMARK   37  A    between atoms: _85  and  _88
REMARK   38  A    between atoms: _88  and  _89
REMARK   39  A    between atoms: _94  and  _95
REMARK   40  A    between atoms: _97  and  _99
REMARK   41  A    between atoms: _99  and  _100
REMARK   42  A    between atoms: _102  and  _104
REMARK   43  A    between atoms: _104  and  _105
REMARK   44  A    between atoms: _108  and  _110
REMARK   45  A    between atoms: _110  and  _111
REMARK   46  A    between atoms: _110  and  _113
REMARK   47  A    between atoms: _113  and  _114
REMARK   48  A    between atoms: _120  and  _122
REMARK   49  A    between atoms: _122  and  _123
REMARK   50  A    between atoms: _122  and  _125
REMARK   51  A    between atoms: _125  and  _126
REMARK   52  A    between atoms: _129  and  _131
REMARK   53  A    between atoms: _131  and  _132
REMARK   54  A    between atoms: _131  and  _134
REMARK   55  A    between atoms: _134  and  _135
REMARK   56  A    between atoms: _135  and  _136
REMARK   57  A    between atoms: _138  and  _140
REMARK   58  A    between atoms: _140  and  _141
REMARK   59  A    between atoms: _140  and  _143
REMARK   60  A    between atoms: _143  and  _144
REMARK   61  A    between atoms: _149  and  _151
REMARK   62  A    between atoms: _151  and  _152
REMARK   63  A    between atoms: _151  and  _154
REMARK   64  A    between atoms: _154  and  _155
REMARK   65  A    between atoms: _158  and  _160
REMARK   66  A    between atoms: _160  and  _161
REMARK   67  A    between atoms: _160  and  _163
REMARK   68  A    between atoms: _163  and  _164
REMARK   69  A    between atoms: _166  and  _168
REMARK   70  A    between atoms: _168  and  _169
REMARK   71  A    between atoms: _168  and  _171
REMARK   72  A    between atoms: _171  and  _172
REMARK   73  A    between atoms: _175  and  _177
REMARK   74  A    between atoms: _177  and  _178
REMARK   75  A    between atoms: _177  and  _180
REMARK   76  A    between atoms: _180  and  _181
REMARK   77  A    between atoms: _181  and  _182
REMARK   78  A    between atoms: _182  and  _183
REMARK   79  A    between atoms: _192  and  _194
REMARK   80  A    between atoms: _194  and  _195
REMARK   81  A    between atoms: _194  and  _197
REMARK   82  A    between atoms: _197  and  _198
REMARK   83  A    between atoms: _198  and  _199
REMARK   84  A    between atoms: _202  and  _204
REMARK   85  A    between atoms: _204  and  _205
REMARK   86  A    between atoms: _204  and  _207
REMARK   87  A    between atoms: _207  and  _208
REMARK   88  A    between atoms: _208  and  _209
REMARK   89  A    between atoms: _209  and  _210
REMARK   90  A    between atoms: _219  and  _221
REMARK   91  A    between atoms: _221  and  _222
REMARK   92  A    between atoms: _221  and  _224
REMARK   93  A    between atoms: _224  and  _225
REMARK   94  A    between atoms: _228  and  _230
REMARK   95  A    between atoms: _230  and  _231
REMARK   96  A    between atoms: _230  and  _233
REMARK   97  A    between atoms: _233  and  _234
REMARK   98  A    between atoms: _240  and  _242
REMARK   99  A    between atoms: _242  and  _243
REMARK  100  A    between atoms: _242  and  _245
REMARK  101  A    between atoms: _245  and  _246
REMARK  102  A    between atoms: _251  and  _252
REMARK  103  A    between atoms: _254  and  _256
REMARK  104  A    between atoms: _256  and  _257
REMARK  105  A    between atoms: _256  and  _259
REMARK  106  A    between atoms: _259  and  _260
REMARK  107  A    between atoms: _263  and  _265
REMARK  108  A    between atoms: _265  and  _266
REMARK  109  A    between atoms: _265  and  _268
REMARK  110  A    between atoms: _268  and  _269
REMARK  111  A    between atoms: _272  and  _274
REMARK  112  A    between atoms: _274  and  _275
REMARK  113  A    between atoms: _278  and  _280
REMARK  114  A    between atoms: _280  and  _281
REMARK  115  A    between atoms: _280  and  _283
REMARK  116  A    between atoms: _285  and  _287
REMARK  117  A    between atoms: _287  and  _288
REMARK  118  A    between atoms: _290  and  _292
REMARK  119  A    between atoms: _292  and  _293
REMARK  120  A    between atoms: _292  and  _295
REMARK  121  A    between atoms: _295  and  _296
REMARK  122  A    between atoms: _299  and  _301
REMARK  123  A    between atoms: _301  and  _302
REMARK  124  A    between atoms: _301  and  _304
REMARK  125  A    between atoms: _304  and  _305
REMARK  126  A    between atoms: _311  and  _312
REMARK  127  A    between atoms: _317  and  _319
REMARK  128  A    between atoms: _319  and  _320
REMARK  129  A    between atoms: _319  and  _322
REMARK  130  A    between atoms: _322  and  _323
REMARK  131  A    between atoms: _326  and  _328
REMARK  132  A    between atoms: _328  and  _329
REMARK  133  A    between atoms: _328  and  _331
REMARK  134  A    between atoms: _331  and  _332
REMARK  135  A    between atoms: _337  and  _338
REMARK  136  A    between atoms: _340  and  _342
REMARK  137  A    between atoms: _342  and  _343
REMARK  138  A    between atoms: _342  and  _345
REMARK  139  A    between atoms: _345  and  _346
REMARK  140  A    between atoms: _348  and  _350
REMARK  141  A    between atoms: _350  and  _351
REMARK  142  A    between atoms: _350  and  _353
REMARK  143  A    between atoms: _353  and  _354
REMARK  144  A    between atoms: _357  and  _359
REMARK  145  A    between atoms: _359  and  _360
REMARK  146  A    between atoms: _359  and  _362
REMARK  147  A    between atoms: _362  and  _363
REMARK  148  A    between atoms: _366  and  _368
REMARK  149  A    between atoms: _368  and  _369
REMARK  150  A    between atoms: _368  and  _371
REMARK  151  A    between atoms: _371  and  _372
REMARK  152  A    between atoms: _375  and  _377
REMARK  153  A    between atoms: _377  and  _378
REMARK  154  A    between atoms: _377  and  _380
REMARK  155  A    between atoms: _380  and  _381
REMARK  156  A    between atoms: _384  and  _386
REMARK  157  A    between atoms: _386  and  _387
REMARK  158  A    between atoms: _386  and  _389
REMARK  159  A    between atoms: _392  and  _394
REMARK  160  A    between atoms: _394  and  _395
REMARK  161  A    between atoms: _398  and  _400
REMARK  162  A    between atoms: _400  and  _401
REMARK  163  A    between atoms: _400  and  _403
REMARK  164  A    between atoms: _403  and  _404
REMARK  165  A    between atoms: _407  and  _409
REMARK  166  A    between atoms: _409  and  _410
REMARK  167  A    between atoms: _409  and  _412
REMARK  168  A    between atoms: _412  and  _413
REMARK  169  A    between atoms: _416  and  _418
REMARK  170  A    between atoms: _418  and  _419
REMARK  171  A    between atoms: _418  and  _421
REMARK  172  A    between atoms: _421  and  _422
REMARK  173  A    between atoms: _425  and  _427
REMARK  174  A    between atoms: _427  and  _428
REMARK  175  A    between atoms: _427  and  _430
REMARK  176  A    between atoms: _430  and  _431
REMARK  177  A    between atoms: _431  and  _432
REMARK  178  A    between atoms: _435  and  _437
REMARK  179  A    between atoms: _437  and  _438
REMARK  180  A    between atoms: _437  and  _440
REMARK  181  A    between atoms: _440  and  _441
REMARK  182  A    between atoms: _444  and  _446
REMARK  183  A    between atoms: _446  and  _447
REMARK  184  A    between atoms: _446  and  _449
REMARK  185  A    between atoms: _449  and  _450
REMARK  186  A    between atoms: _453  and  _455
REMARK  187  A    between atoms: _455  and  _456
REMARK  188  A    between atoms: _455  and  _458
REMARK  189  A    between atoms: _458  and  _459
REMARK  190  A    between atoms: _462  and  _464
REMARK  191  A    between atoms: _464  and  _465
REMARK  192  A    between atoms: _464  and  _467
REMARK  193  A    between atoms: _467  and  _468
REMARK  194  A    between atoms: _471  and  _473
REMARK  195  A    between atoms: _473  and  _474
REMARK  196  A    between atoms: _473  and  _476
REMARK  197  A    between atoms: _476  and  _477
REMARK  198  A    between atoms: _477  and  _478
REMARK  199  A    between atoms: _478  and  _479
REMARK  200  A    between atoms: _479  and  _480
REMARK  201  A    between atoms: _484  and  _486
REMARK  202  A    between atoms: _486  and  _487
REMARK  203  A    between atoms: _486  and  _489
REMARK  204  A    between atoms: _489  and  _490
REMARK  205  A    between atoms: _493  and  _495
REMARK  206  A    between atoms: _495  and  _496
REMARK  207  A    between atoms: _495  and  _498
REMARK  208  A    between atoms: _498  and  _499
REMARK  209  A    between atoms: _503  and  _504
REMARK  210  A    between atoms: _509  and  _511
REMARK  211  A    between atoms: _511  and  _512
REMARK  212  A    between atoms: _511  and  _514
REMARK  213  A    between atoms: _516  and  _518
REMARK  214  A    between atoms: _518  and  _519
REMARK  215  A    between atoms: _518  and  _521
REMARK  216  A    between atoms: _521  and  _522
REMARK  217  A    between atoms: _525  and  _527
REMARK  218  A    between atoms: _527  and  _528
REMARK  219  A    between atoms: _527  and  _530
REMARK  220  A    between atoms: _530  and  _531
REMARK  221  A    between atoms: _531  and  _532
REMARK  222  A    between atoms: _537  and  _539
REMARK  223  A    between atoms: _539  and  _540
REMARK  224  A    between atoms: _539  and  _542
REMARK  225  A    between atoms: _542  and  _543
REMARK  226  A    between atoms: _545  and  _547
REMARK  227  A    between atoms: _547  and  _548
REMARK  228  A    between atoms: _547  and  _550
REMARK  229  A    between atoms: _550  and  _551
REMARK  230  A    between atoms: _555  and  _556
REMARK  231  A    between atoms: _561  and  _563
REMARK  232  A    between atoms: _563  and  _564
REMARK  233  A    between atoms: _563  and  _566
REMARK  234  A    between atoms: _566  and  _567
REMARK  235  A    between atoms: _567  and  _568
REMARK                            x       y       z     vdW  Elec       q    Type
REMARK                         _______ _______ _______ _____ _____    ______ ____
ROOT
ATOM      1  CA  ARG A   1      14.686  12.413   8.674  0.00  0.00    +0.145 C 
ENDROOT
BRANCH   1   2
ATOM      2  C   ARG A   1      13.654  11.888   7.680  0.00  0.00    +0.238 C 
ATOM      3  N   LEU A   2      12.429  11.658   8.154  0.00  0.00    -0.298 N 
ATOM      4  H   LEU A   2      12.231  11.827   9.161  0.00  0.00    +0.150 HD
ATOM      5  O   ARG A   1      13.962  11.699   6.503  0.00  0.00    -0.274 OA
BRANCH   3   6
ATOM      6  CA  LEU A   2      11.360  11.173   7.285  0.00  0.00    +0.137 C 
BRANCH   6   7
ATOM      7  C   LEU A   2      10.965  12.212   6.231  0.00  0.00    +0.227 C 
ATOM      8  O   LEU A   2      10.643  11.858   5.099  0.00  0.00    -0.286 OA
ENDBRANCH   6   7
BRANCH   6   9
ATOM      9  CB  LEU A   2      10.119  10.799   8.107  0.00  0.00    +0.028 C 
BRANCH   9  10
ATOM     10  CG  LEU A   2       9.998   9.371   8.653  0.00  0.00    +0.002 C 
ATOM     11  CD2 LEU A   2      11.114   9.082   9.647  0.00  0.00    +0.000 C 
ATOM     12  CD1 LEU A   2       8.644   9.214   9.327  0.00  0.00    +0.000 C 
ENDBRANCH   9  10
ENDBRANCH   6   9
ENDBRANCH   3   6
ENDBRANCH   1   2
BRANCH   1  13
ATOM     13  N   ARG A   1      14.130  13.528   9.430  0.00  0.00    -0.238 NA
ATOM     14  H   ARG A   1      14.013  13.442  10.460  0.00  0.00    +0.142 HD
ENDBRANCH   1  13
BRANCH   1  15
ATOM     15  CB  ARG A   1      15.123  11.291   9.617  0.00  0.00    +0.030 C 
BRANCH  15  16
ATOM     16  CG  ARG A   1      15.666  10.061   8.901  0.00  0.00    +0.045 C 
BRANCH  16  17
ATOM     17  CD  ARG A   1      16.356   9.121   9.881  0.00  0.00    +0.174 C 
BRANCH  17  18
ATOM     18  NE  ARG A   1      15.459   8.682  10.947  0.00  0.00    -0.265 N 
ATOM     19  HE  ARG A   1      15.630   9.041  11.908  0.00  0.00    +0.259 HD
ATOM     20  CZ  ARG A   1      14.440   7.854  10.764  0.00  0.00    +0.342 C 
ATOM     21  NH2 ARG A   1      13.669   7.514  11.789  0.00  0.00    -0.292 N 
ATOM     22 HH21 ARG A   1      13.864   7.897  12.736  0.00  0.00    +0.255 HD
ATOM     23 HH22 ARG A   1      12.870   6.864  11.645  0.00  0.00    +0.255 HD
ATOM     24  NH1 ARG A   1      14.190   7.371   9.554  0.00  0.00    -0.292 N 
ATOM     25 HH11 ARG A   1      13.391   6.721   9.408  0.00  0.00    +0.255 HD
ATOM     26 HH12 ARG A   1      14.793   7.642   8.751  0.00  0.00    +0.255 HD
ENDBRANCH  17  18
ENDBRANCH  16  17
ENDBRANCH  15  16
ENDBRANCH   1  15
TORSDOF 10
REMARK  Name = ../refined-set-2016/3lcv/3lcv_pocket.pdb
REMARK  235 active torsions:
REMARK  status: ('A' for Active; 'I' for Inactive)
REMARK    1  A    between atoms: _1  and  _3
REMARK    2  A    between atoms: _3  and  _4
REMARK    3  A    between atoms: _3  and  _6
REMARK    4  A    between atoms: _9  and  _11
REMARK    5  A    between atoms: _11  and  _12
REMARK    6  A    between atoms: _15  and  _17
REMARK    7  A    between atoms: _17  and  _18
REMARK    8  A    between atoms: _17  and  _20
REMARK    9  A    between atoms: _20  and  _21
REMARK   10  A    between atoms: _24  and  _26
REMARK   11  A    between atoms: _26  and  _27
REMARK   12  A    between atoms: _26  and  _29
REMARK   13  A    between atoms: _29  and  _30
REMARK   14  A    between atoms: _30  and  _31
REMARK   15  A    between atoms: _31  and  _32
REMARK   16  A    between atoms: _41  and  _43
REMARK   17  A    between atoms: _43  and  _44
REMARK   18  A    between atoms: _43  and  _46
REMARK   19  A    between atoms: _46  and  _47
REMARK   20  A    between atoms: _50  and  _52
REMARK   21  A    between atoms: _52  and  _53
REMARK   22  A    between atoms: _55  and  _57
REMARK   23  A    between atoms: _57  and  _58
REMARK   24  A    between atoms: _57  and  _60
REMARK   25  A    between atoms: _60  and  _61
REMARK   26  A    between atoms: _64  and  _66
REMARK   27  A    between atoms: _66  and  _67
REMARK   28  A    between atoms: _66  and  _69
REMARK   29  A    between atoms: _69  and  _70
REMARK   30  A    between atoms: _70  and  _71
REMARK   31  A    between atoms: _74  and  _76
REMARK   32  A    between atoms: _76  and  _77
REMARK   33  A    between atoms: _76  and  _79
REMARK   34  A    between atoms: _79  and  _80
REMARK   35  A    between atoms: _83  and  _85
REMARK   36  A    between atoms: _85  and  _86
REMARK   37  A    between atoms: _85  and  _88
REMARK   38  A    between atoms: _88  and  _89
REMARK   39  A    between atoms: _94  and  _95
REMARK   40  A    between atoms: _97  and  _99
REMARK   41  A    between atoms: _99  and  _100
REMARK   42  A    between atoms: _102  and  _104
REMARK   43  A    between atoms: _104  and  _105
REMARK   44  A    between atoms: _108  and  _110
REMARK   45  A    between atoms: _110  and  _111
REMARK   46  A    between atoms: _110  and  _113
REMARK   47  A    between atoms: _113  and  _114
REMARK   48  A    between atoms: _120  and  _122
REMARK   49  A    between atoms: _122  and  _123
REMARK   50  A    between atoms: _122  and  _125
REMARK   51  A    between atoms: _125  and  _126
REMARK   52  A    between atoms: _129  and  _131
REMARK   53  A    between atoms: _131  and  _132
REMARK   54  A    between atoms: _131  and  _134
REMARK   55  A    between atoms: _134  and  _135
REMARK   56  A    between atoms: _135  and  _136
REMARK   57  A    between atoms: _138  and  _140
REMARK   58  A    between atoms: _140  and  _141
REMARK   59  A    between atoms: _140  and  _143
REMARK   60  A    between atoms: _143  and  _144
REMARK   61  A    between atoms: _149  and  _151
REMARK   62  A    between atoms: _151  and  _152
REMARK   63  A    between atoms: _151  and  _154
REMARK   64  A    between atoms: _154  and  _155
REMARK   65  A    between atoms: _158  and  _160
REMARK   66  A    between atoms: _160  and  _161
REMARK   67  A    between atoms: _160  and  _163
REMARK   68  A    between atoms: _163  and  _164
REMARK   69  A    between atoms: _166  and  _168
REMARK   70  A    between atoms: _168  and  _169
REMARK   71  A    between atoms: _168  and  _171
REMARK   72  A    between atoms: _171  and  _172
REMARK   73  A    between atoms: _175  and  _177
REMARK   74  A    between atoms: _177  and  _178
REMARK   75  A    between atoms: _177  and  _180
REMARK   76  A    between atoms: _180  and  _181
REMARK   77  A    between atoms: _181  and  _182
REMARK   78  A    between atoms: _182  and  _183
REMARK   79  A    between atoms: _192  and  _194
REMARK   80  A    between atoms: _194  and  _195
REMARK   81  A    between atoms: _194  and  _197
REMARK   82  A    between atoms: _197  and  _198
REMARK   83  A    between atoms: _198  and  _199
REMARK   84  A    between atoms: _202  and  _204
REMARK   85  A    between atoms: _204  and  _205
REMARK   86  A    between atoms: _204  and  _207
REMARK   87  A    between atoms: _207  and  _208
REMARK   88  A    between atoms: _208  and  _209
REMARK   89  A    between atoms: _209  and  _210
REMARK   90  A    between atoms: _219  and  _221
REMARK   91  A    between atoms: _221  and  _222
REMARK   92  A    between atoms: _221  and  _224
REMARK   93  A    between atoms: _224  and  _225
REMARK   94  A    between atoms: _228  and  _230
REMARK   95  A    between atoms: _230  and  _231
REMARK   96  A    between atoms: _230  and  _233
REMARK   97  A    between atoms: _233  and  _234
REMARK   98  A    between atoms: _240  and  _242
REMARK   99  A    between atoms: _242  and  _243
REMARK  100  A    between atoms: _242  and  _245
REMARK  101  A    between atoms: _245  and  _246
REMARK  102  A    between atoms: _251  and  _252
REMARK  103  A    between atoms: _254  and  _256
REMARK  104  A    between atoms: _256  and  _257
REMARK  105  A    between atoms: _256  and  _259
REMARK  106  A    between atoms: _259  and  _260
REMARK  107  A    between atoms: _263  and  _265
REMARK  108  A    between atoms: _265  and  _266
REMARK  109  A    between atoms: _265  and  _268
REMARK  110  A    between atoms: _268  and  _269
REMARK  111  A    between atoms: _272  and  _274
REMARK  112  A    between atoms: _274  and  _275
REMARK  113  A    between atoms: _278  and  _280
REMARK  114  A    between atoms: _280  and  _281
REMARK  115  A    between atoms: _280  and  _283
REMARK  116  A    between atoms: _285  and  _287
REMARK  117  A    between atoms: _287  and  _288
REMARK  118  A    between atoms: _290  and  _292
REMARK  119  A    between atoms: _292  and  _293
REMARK  120  A    between atoms: _292  and  _295
REMARK  121  A    between atoms: _295  and  _296
REMARK  122  A    between atoms: _299  and  _301
REMARK  123  A    between atoms: _301  and  _302
REMARK  124  A    between atoms: _301  and  _304
REMARK  125  A    between atoms: _304  and  _305
REMARK  126  A    between atoms: _311  and  _312
REMARK  127  A    between atoms: _317  and  _319
REMARK  128  A    between atoms: _319  and  _320
REMARK  129  A    between atoms: _319  and  _322
REMARK  130  A    between atoms: _322  and  _323
REMARK  131  A    between atoms: _326  and  _328
REMARK  132  A    between atoms: _328  and  _329
REMARK  133  A    between atoms: _328  and  _331
REMARK  134  A    between atoms: _331  and  _332
REMARK  135  A    between atoms: _337  and  _338
REMARK  136  A    between atoms: _340  and  _342
REMARK  137  A    between atoms: _342  and  _343
REMARK  138  A    between atoms: _342  and  _345
REMARK  139  A    between atoms: _345  and  _346
REMARK  140  A    between atoms: _348  and  _350
REMARK  141  A    between atoms: _350  and  _351
REMARK  142  A    between atoms: _350  and  _353
REMARK  143  A    between atoms: _353  and  _354
REMARK  144  A    between atoms: _357  and  _359
REMARK  145  A    between atoms: _359  and  _360
REMARK  146  A    between atoms: _359  and  _362
REMARK  147  A    between atoms: _362  and  _363
REMARK  148  A    between atoms: _366  and  _368
REMARK  149  A    between atoms: _368  and  _369
REMARK  150  A    between atoms: _368  and  _371
REMARK  151  A    between atoms: _371  and  _372
REMARK  152  A    between atoms: _375  and  _377
REMARK  153  A    between atoms: _377  and  _378
REMARK  154  A    between atoms: _377  and  _380
REMARK  155  A    between atoms: _380  and  _381
REMARK  156  A    between atoms: _384  and  _386
REMARK  157  A    between atoms: _386  and  _387
REMARK  158  A    between atoms: _386  and  _389
REMARK  159  A    between atoms: _392  and  _394
REMARK  160  A    between atoms: _394  and  _395
REMARK  161  A    between atoms: _398  and  _400
REMARK  162  A    between atoms: _400  and  _401
REMARK  163  A    between atoms: _400  and  _403
REMARK  164  A    between atoms: _403  and  _404
REMARK  165  A    between atoms: _407  and  _409
REMARK  166  A    between atoms: _409  and  _410
REMARK  167  A    between atoms: _409  and  _412
REMARK  168  A    between atoms: _412  and  _413
REMARK  169  A    between atoms: _416  and  _418
REMARK  170  A    between atoms: _418  and  _419
REMARK  171  A    between atoms: _418  and  _421
REMARK  172  A    between atoms: _421  and  _422
REMARK  173  A    between atoms: _425  and  _427
REMARK  174  A    between atoms: _427  and  _428
REMARK  175  A    between atoms: _427  and  _430
REMARK  176  A    between atoms: _430  and  _431
REMARK  177  A    between atoms: _431  and  _432
REMARK  178  A    between atoms: _435  and  _437
REMARK  179  A    between atoms: _437  and  _438
REMARK  180  A    between atoms: _437  and  _440
REMARK  181  A    between atoms: _440  and  _441
REMARK  182  A    between atoms: _444  and  _446
REMARK  183  A    between atoms: _446  and  _447
REMARK  184  A    between atoms: _446  and  _449
REMARK  185  A    between atoms: _449  and  _450
REMARK  186  A    between atoms: _453  and  _455
REMARK  187  A    between atoms: _455  and  _456
REMARK  188  A    between atoms: _455  and  _458
REMARK  189  A    between atoms: _458  and  _459
REMARK  190  A    between atoms: _462  and  _464
REMARK  191  A    between atoms: _464  and  _465
REMARK  192  A    between atoms: _464  and  _467
REMARK  193  A    between atoms: _467  and  _468
REMARK  194  A    between atoms: _471  and  _473
REMARK  195  A    between atoms: _473  and  _474
REMARK  196  A    between atoms: _473  and  _476
REMARK  197  A    between atoms: _476  and  _477
REMARK  198  A    between atoms: _477  and  _478
REMARK  199  A    between atoms: _478  and  _479
REMARK  200  A    between atoms: _479  and  _480
REMARK  201  A    between atoms: _484  and  _486
REMARK  202  A    between atoms: _486  and  _487
REMARK  203  A    between atoms: _486  and  _489
REMARK  204  A    between atoms: _489  and  _490
REMARK  205  A    between atoms: _493  and  _495
REMARK  206  A    between atoms: _495  and  _496
REMARK  207  A    between atoms: _495  and  _498
REMARK  208  A    between atoms: _498  and  _499
REMARK  209  A    between atoms: _503  and  _504
REMARK  210  A    between atoms: _509  and  _511
REMARK  211  A    between atoms: _511  and  _512
REMARK  212  A    between atoms: _511  and  _514
REMARK  213  A    between atoms: _516  and  _518
REMARK  214  A    between atoms: _518  and  _519
REMARK  215  A    between atoms: _518  and  _521
REMARK  216  A    between atoms: _521  and  _522
REMARK  217  A    between atoms: _525  and  _527
REMARK  218  A    between atoms: _527  and  _528
REMARK  219  A    between atoms: _527  and  _530
REMARK  220  A    between atoms: _530  and  _531
REMARK  221  A    between atoms: _531  and  _532
REMARK  222  A    between atoms: _537  and  _539
REMARK  223  A    between atoms: _539  and  _540
REMARK  224  A    between atoms: _539  and  _542
REMARK  225  A    between atoms: _542  and  _543
REMARK  226  A    between atoms: _545  and  _547
REMARK  227  A    between atoms: _547  and  _548
REMARK  228  A    between atoms: _547  and  _550
REMARK  229  A    between atoms: _550  and  _551
REMARK  230  A    between atoms: _555  and  _556
REMARK  231  A    between atoms: _561  and  _563
REMARK  232  A    between atoms: _563  and  _564
REMARK  233  A    between atoms: _563  and  _566
REMARK  234  A    between atoms: _566  and  _567
REMARK  235  A    between atoms: _567  and  _568
REMARK                            x       y       z     vdW  Elec       q    Type
REMARK                         _______ _______ _______ _____ _____    ______ ____
ROOT
ATOM      1  C   GLY A   1       5.364   7.067   8.878  0.00  0.00    +0.240 C 
ATOM      2  O   GLY A   1       5.787   6.123   9.548  0.00  0.00    -0.274 OA
ATOM      3  N   LEU A   2       4.864   8.165   9.430  0.00  0.00    -0.298 N 
ATOM      4  H   LEU A   2       4.525   8.941   8.826  0.00  0.00    +0.150 HD
ENDROOT
BRANCH   1   5
ATOM      5  CA  GLY A   1       5.392   7.025   7.360  0.00  0.00    +0.169 C 
BRANCH   5   6
ATOM      6  N   GLY A   1       4.220   7.681   6.814  0.00  0.00    -0.236 NA
ATOM      7  H   GLY A   1       4.317   8.600   6.337  0.00  0.00    +0.142 HD
ENDBRANCH   5   6
ENDBRANCH   1   5
BRANCH   3   8
ATOM      8  CA  LEU A   2       4.788   8.288  10.880  0.00  0.00    +0.137 C 
BRANCH   8   9
ATOM      9  C   LEU A   2       3.751   7.306  11.419  0.00  0.00    +0.227 C 
ATOM     10  O   LEU A   2       3.948   6.693  12.470  0.00  0.00    -0.286 OA
ENDBRANCH   8   9
BRANCH   8  11
ATOM     11  CB  LEU A   2       4.423   9.720  11.272  0.00  0.00    +0.028 C 
BRANCH  11  12
ATOM     12  CG  LEU A   2       5.577  10.717  11.120  0.00  0.00    +0.002 C 
ATOM     13  CD2 LEU A   2       6.668  10.389  12.134  0.00  0.00    +0.000 C 
ATOM     14  CD1 LEU A   2       5.067  12.137  11.309  0.00  0.00    +0.000 C 
ENDBRANCH  11  12
ENDBRANCH   8  11
ENDBRANCH   3   8
TORSDOF 6
REMARK  Name = ../refined-set-2016/3lcv/3lcv_pocket.pdb
REMARK  235 active torsions:
REMARK  status: ('A' for Active; 'I' for Inactive)
REMARK    1  A    between atoms: _1  and  _3
REMARK    2  A    between atoms: _3  and  _4
REMARK    3  A    between atoms: _3  and  _6
REMARK    4  A    between atoms: _9  and  _11
REMARK    5  A    between atoms: _11  and  _12
REMARK    6  A    between atoms: _15  and  _17
REMARK    7  A    between atoms: _17  and  _18
REMARK    8  A    between atoms: _17  and  _20
REMARK    9  A    between atoms: _20  and  _21
REMARK   10  A    between atoms: _24  and  _26
REMARK   11  A    between atoms: _26  and  _27
REMARK   12  A    between atoms: _26  and  _29
REMARK   13  A    between atoms: _29  and  _30
REMARK   14  A    between atoms: _30  and  _31
REMARK   15  A    between atoms: _31  and  _32
REMARK   16  A    between atoms: _41  and  _43
REMARK   17  A    between atoms: _43  and  _44
REMARK   18  A    between atoms: _43  and  _46
REMARK   19  A    between atoms: _46  and  _47
REMARK   20  A    between atoms: _50  and  _52
REMARK   21  A    between atoms: _52  and  _53
REMARK   22  A    between atoms: _55  and  _57
REMARK   23  A    between atoms: _57  and  _58
REMARK   24  A    between atoms: _57  and  _60
REMARK   25  A    between atoms: _60  and  _61
REMARK   26  A    between atoms: _64  and  _66
REMARK   27  A    between atoms: _66  and  _67
REMARK   28  A    between atoms: _66  and  _69
REMARK   29  A    between atoms: _69  and  _70
REMARK   30  A    between atoms: _70  and  _71
REMARK   31  A    between atoms: _74  and  _76
REMARK   32  A    between atoms: _76  and  _77
REMARK   33  A    between atoms: _76  and  _79
REMARK   34  A    between atoms: _79  and  _80
REMARK   35  A    between atoms: _83  and  _85
REMARK   36  A    between atoms: _85  and  _86
REMARK   37  A    between atoms: _85  and  _88
REMARK   38  A    between atoms: _88  and  _89
REMARK   39  A    between atoms: _94  and  _95
REMARK   40  A    between atoms: _97  and  _99
REMARK   41  A    between atoms: _99  and  _100
REMARK   42  A    between atoms: _102  and  _104
REMARK   43  A    between atoms: _104  and  _105
REMARK   44  A    between atoms: _108  and  _110
REMARK   45  A    between atoms: _110  and  _111
REMARK   46  A    between atoms: _110  and  _113
REMARK   47  A    between atoms: _113  and  _114
REMARK   48  A    between atoms: _120  and  _122
REMARK   49  A    between atoms: _122  and  _123
REMARK   50  A    between atoms: _122  and  _125
REMARK   51  A    between atoms: _125  and  _126
REMARK   52  A    between atoms: _129  and  _131
REMARK   53  A    between atoms: _131  and  _132
REMARK   54  A    between atoms: _131  and  _134
REMARK   55  A    between atoms: _134  and  _135
REMARK   56  A    between atoms: _135  and  _136
REMARK   57  A    between atoms: _138  and  _140
REMARK   58  A    between atoms: _140  and  _141
REMARK   59  A    between atoms: _140  and  _143
REMARK   60  A    between atoms: _143  and  _144
REMARK   61  A    between atoms: _149  and  _151
REMARK   62  A    between atoms: _151  and  _152
REMARK   63  A    between atoms: _151  and  _154
REMARK   64  A    between atoms: _154  and  _155
REMARK   65  A    between atoms: _158  and  _160
REMARK   66  A    between atoms: _160  and  _161
REMARK   67  A    between atoms: _160  and  _163
REMARK   68  A    between atoms: _163  and  _164
REMARK   69  A    between atoms: _166  and  _168
REMARK   70  A    between atoms: _168  and  _169
REMARK   71  A    between atoms: _168  and  _171
REMARK   72  A    between atoms: _171  and  _172
REMARK   73  A    between atoms: _175  and  _177
REMARK   74  A    between atoms: _177  and  _178
REMARK   75  A    between atoms: _177  and  _180
REMARK   76  A    between atoms: _180  and  _181
REMARK   77  A    between atoms: _181  and  _182
REMARK   78  A    between atoms: _182  and  _183
REMARK   79  A    between atoms: _192  and  _194
REMARK   80  A    between atoms: _194  and  _195
REMARK   81  A    between atoms: _194  and  _197
REMARK   82  A    between atoms: _197  and  _198
REMARK   83  A    between atoms: _198  and  _199
REMARK   84  A    between atoms: _202  and  _204
REMARK   85  A    between atoms: _204  and  _205
REMARK   86  A    between atoms: _204  and  _207
REMARK   87  A    between atoms: _207  and  _208
REMARK   88  A    between atoms: _208  and  _209
REMARK   89  A    between atoms: _209  and  _210
REMARK   90  A    between atoms: _219  and  _221
REMARK   91  A    between atoms: _221  and  _222
REMARK   92  A    between atoms: _221  and  _224
REMARK   93  A    between atoms: _224  and  _225
REMARK   94  A    between atoms: _228  and  _230
REMARK   95  A    between atoms: _230  and  _231
REMARK   96  A    between atoms: _230  and  _233
REMARK   97  A    between atoms: _233  and  _234
REMARK   98  A    between atoms: _240  and  _242
REMARK   99  A    between atoms: _242  and  _243
REMARK  100  A    between atoms: _242  and  _245
REMARK  101  A    between atoms: _245  and  _246
REMARK  102  A    between atoms: _251  and  _252
REMARK  103  A    between atoms: _254  and  _256
REMARK  104  A    between atoms: _256  and  _257
REMARK  105  A    between atoms: _256  and  _259
REMARK  106  A    between atoms: _259  and  _260
REMARK  107  A    between atoms: _263  and  _265
REMARK  108  A    between atoms: _265  and  _266
REMARK  109  A    between atoms: _265  and  _268
REMARK  110  A    between atoms: _268  and  _269
REMARK  111  A    between atoms: _272  and  _274
REMARK  112  A    between atoms: _274  and  _275
REMARK  113  A    between atoms: _278  and  _280
REMARK  114  A    between atoms: _280  and  _281
REMARK  115  A    between atoms: _280  and  _283
REMARK  116  A    between atoms: _285  and  _287
REMARK  117  A    between atoms: _287  and  _288
REMARK  118  A    between atoms: _290  and  _292
REMARK  119  A    between atoms: _292  and  _293
REMARK  120  A    between atoms: _292  and  _295
REMARK  121  A    between atoms: _295  and  _296
REMARK  122  A    between atoms: _299  and  _301
REMARK  123  A    between atoms: _301  and  _302
REMARK  124  A    between atoms: _301  and  _304
REMARK  125  A    between atoms: _304  and  _305
REMARK  126  A    between atoms: _311  and  _312
REMARK  127  A    between atoms: _317  and  _319
REMARK  128  A    between atoms: _319  and  _320
REMARK  129  A    between atoms: _319  and  _322
REMARK  130  A    between atoms: _322  and  _323
REMARK  131  A    between atoms: _326  and  _328
REMARK  132  A    between atoms: _328  and  _329
REMARK  133  A    between atoms: _328  and  _331
REMARK  134  A    between atoms: _331  and  _332
REMARK  135  A    between atoms: _337  and  _338
REMARK  136  A    between atoms: _340  and  _342
REMARK  137  A    between atoms: _342  and  _343
REMARK  138  A    between atoms: _342  and  _345
REMARK  139  A    between atoms: _345  and  _346
REMARK  140  A    between atoms: _348  and  _350
REMARK  141  A    between atoms: _350  and  _351
REMARK  142  A    between atoms: _350  and  _353
REMARK  143  A    between atoms: _353  and  _354
REMARK  144  A    between atoms: _357  and  _359
REMARK  145  A    between atoms: _359  and  _360
REMARK  146  A    between atoms: _359  and  _362
REMARK  147  A    between atoms: _362  and  _363
REMARK  148  A    between atoms: _366  and  _368
REMARK  149  A    between atoms: _368  and  _369
REMARK  150  A    between atoms: _368  and  _371
REMARK  151  A    between atoms: _371  and  _372
REMARK  152  A    between atoms: _375  and  _377
REMARK  153  A    between atoms: _377  and  _378
REMARK  154  A    between atoms: _377  and  _380
REMARK  155  A    between atoms: _380  and  _381
REMARK  156  A    between atoms: _384  and  _386
REMARK  157  A    between atoms: _386  and  _387
REMARK  158  A    between atoms: _386  and  _389
REMARK  159  A    between atoms: _392  and  _394
REMARK  160  A    between atoms: _394  and  _395
REMARK  161  A    between atoms: _398  and  _400
REMARK  162  A    between atoms: _400  and  _401
REMARK  163  A    between atoms: _400  and  _403
REMARK  164  A    between atoms: _403  and  _404
REMARK  165  A    between atoms: _407  and  _409
REMARK  166  A    between atoms: _409  and  _410
REMARK  167  A    between atoms: _409  and  _412
REMARK  168  A    between atoms: _412  and  _413
REMARK  169  A    between atoms: _416  and  _418
REMARK  170  A    between atoms: _418  and  _419
REMARK  171  A    between atoms: _418  and  _421
REMARK  172  A    between atoms: _421  and  _422
REMARK  173  A    between atoms: _425  and  _427
REMARK  174  A    between atoms: _427  and  _428
REMARK  175  A    between atoms: _427  and  _430
REMARK  176  A    between atoms: _430  and  _431
REMARK  177  A    between atoms: _431  and  _432
REMARK  178  A    between atoms: _435  and  _437
REMARK  179  A    between atoms: _437  and  _438
REMARK  180  A    between atoms: _437  and  _440
REMARK  181  A    between atoms: _440  and  _441
REMARK  182  A    between atoms: _444  and  _446
REMARK  183  A    between atoms: _446  and  _447
REMARK  184  A    between atoms: _446  and  _449
REMARK  185  A    between atoms: _449  and  _450
REMARK  186  A    between atoms: _453  and  _455
REMARK  187  A    between atoms: _455  and  _456
REMARK  188  A    between atoms: _455  and  _458
REMARK  189  A    between atoms: _458  and  _459
REMARK  190  A    between atoms: _462  and  _464
REMARK  191  A    between atoms: _464  and  _465
REMARK  192  A    between atoms: _464  and  _467
REMARK  193  A    between atoms: _467  and  _468
REMARK  194  A    between atoms: _471  and  _473
REMARK  195  A    between atoms: _473  and  _474
REMARK  196  A    between atoms: _473  and  _476
REMARK  197  A    between atoms: _476  and  _477
REMARK  198  A    between atoms: _477  and  _478
REMARK  199  A    between atoms: _478  and  _479
REMARK  200  A    between atoms: _479  and  _480
REMARK  201  A    between atoms: _484  and  _486
REMARK  202  A    between atoms: _486  and  _487
REMARK  203  A    between atoms: _486  and  _489
REMARK  204  A    between atoms: _489  and  _490
REMARK  205  A    between atoms: _493  and  _495
REMARK  206  A    between atoms: _495  and  _496
REMARK  207  A    between atoms: _495  and  _498
REMARK  208  A    between atoms: _498  and  _499
REMARK  209  A    between atoms: _503  and  _504
REMARK  210  A    between atoms: _509  and  _511
REMARK  211  A    between atoms: _511  and  _512
REMARK  212  A    between atoms: _511  and  _514
REMARK  213  A    between atoms: _516  and  _518
REMARK  214  A    between atoms: _518  and  _519
REMARK  215  A    between atoms: _518  and  _521
REMARK  216  A    between atoms: _521  and  _522
REMARK  217  A    between atoms: _525  and  _527
REMARK  218  A    between atoms: _527  and  _528
REMARK  219  A    between atoms: _527  and  _530
REMARK  220  A    between atoms: _530  and  _531
REMARK  221  A    between atoms: _531  and  _532
REMARK  222  A    between atoms: _537  and  _539
REMARK  223  A    between atoms: _539  and  _540
REMARK  224  A    between atoms: _539  and  _542
REMARK  225  A    between atoms: _542  and  _543
REMARK  226  A    between atoms: _545  and  _547
REMARK  227  A    between atoms: _547  and  _548
REMARK  228  A    between atoms: _547  and  _550
REMARK  229  A    between atoms: _550  and  _551
REMARK  230  A    between atoms: _555  and  _556
REMARK  231  A    between atoms: _561  and  _563
REMARK  232  A    between atoms: _563  and  _564
REMARK  233  A    between atoms: _563  and  _566
REMARK  234  A    between atoms: _566  and  _567
REMARK  235  A    between atoms: _567  and  _568
REMARK                            x       y       z     vdW  Elec       q    Type
REMARK                         _______ _______ _______ _____ _____    ______ ____
ROOT
ATOM      1  C   TYR A   3       2.740   5.297  15.648  0.00  0.00    +0.241 C 
ATOM      2  O   TYR A   3       2.174   4.761  16.606  0.00  0.00    -0.273 OA
ATOM      3  N   GLY A   4       2.090   6.023  14.743  0.00  0.00    -0.295 N 
ATOM      4  H   GLY A   4       2.611   6.446  13.949  0.00  0.00    +0.150 HD
ENDROOT
BRANCH   1   5
ATOM      5  CA  TYR A   3       4.252   5.167  15.459  0.00  0.00    +0.153 C 
BRANCH   5   8
ATOM      6  C   ILE A   2       5.805   3.946  14.058  0.00  0.00    +0.241 C 
ATOM      7  O   ILE A   2       6.475   3.609  15.037  0.00  0.00    -0.273 OA
ATOM      8  N   TYR A   3       4.695   4.668  14.162  0.00  0.00    -0.297 N 
ATOM      9  H   TYR A   3       4.136   4.880  13.311  0.00  0.00    +0.150 HD
BRANCH   6  10
ATOM     10  CA  ILE A   2       6.221   3.511  12.664  0.00  0.00    +0.148 C 
BRANCH  10  13
ATOM     11  C   GLU A   1       4.451   2.753  11.213  0.00  0.00    +0.238 C 
ATOM     12  O   GLU A   1       4.498   1.625  11.699  0.00  0.00    -0.274 OA
ATOM     13  N   ILE A   2       5.227   3.744  11.633  0.00  0.00    -0.297 N 
ATOM     14  H   ILE A   2       5.122   4.693  11.221  0.00  0.00    +0.150 HD
BRANCH  11  15
ATOM     15  CA  GLU A   1       3.467   3.076  10.095  0.00  0.00    +0.145 C 
BRANCH  15  16
ATOM     16  N   GLU A   1       2.930   4.426  10.160  0.00  0.00    -0.238 NA
ATOM     17  H   GLU A   1       3.185   5.115   9.424  0.00  0.00    +0.142 HD
ENDBRANCH  15  16
BRANCH  15  18
ATOM     18  CB  GLU A   1       4.141   2.852   8.743  0.00  0.00    +0.038 C 
BRANCH  18  19
ATOM     19  CG  GLU A   1       4.966   1.581   8.650  0.00  0.00    +0.116 C 
BRANCH  19  20
ATOM     20  CD  GLU A   1       5.428   1.295   7.222  0.00  0.00    +0.365 C 
ATOM     21  OE2 GLU A   1       5.293   0.138   6.766  0.00  0.00    -0.246 OA
ATOM     22  OE1 GLU A   1       5.930   2.228   6.559  0.00  0.00    -0.246 OA
ENDBRANCH  19  20
ENDBRANCH  18  19
ENDBRANCH  15  18
ENDBRANCH  11  15
ENDBRANCH  10  13
BRANCH  10  23
ATOM     23  CB  ILE A   2       7.559   4.216  12.310  0.00  0.00    +0.027 C 
ATOM     24  CG2 ILE A   2       8.000   3.813  10.916  0.00  0.00    +0.002 C 
BRANCH  23  25
ATOM     25  CG1 ILE A   2       7.398   5.735  12.369  0.00  0.00    +0.002 C 
ATOM     26  CD1 ILE A   2       8.701   6.486  12.155  0.00  0.00    +0.000 C 
ENDBRANCH  23  25
ENDBRANCH  10  23
ENDBRANCH   6  10
ENDBRANCH   5   8
BRANCH   5  27
ATOM     27  CB  TYR A   3       4.909   6.527  15.703  0.00  0.00    +0.055 C 
BRANCH  27  28
ATOM     28  CG  TYR A   3       4.311   7.319  16.843  0.00  0.00    -0.020 A 
ATOM     29  CD2 TYR A   3       4.664   7.056  18.169  0.00  0.00    -0.001 A 
ATOM     30  CE2 TYR A   3       4.106   7.786  19.218  0.00  0.00    +0.036 A 
ATOM     31  CZ  TYR A   3       3.179   8.782  18.939  0.00  0.00    +0.134 A 
ATOM     32  CE1 TYR A   3       2.813   9.057  17.631  0.00  0.00    +0.036 A 
ATOM     33  CD1 TYR A   3       3.381   8.329  16.594  0.00  0.00    -0.001 A 
BRANCH  31  34
ATOM     34  OH  TYR A   3       2.613   9.495  19.964  0.00  0.00    -0.506 OA
ATOM     35  HH  TYR A   3       1.632   9.364  19.953  0.00  0.00    +0.292 HD
ENDBRANCH  31  34
ENDBRANCH  27  28
ENDBRANCH   5  27
ENDBRANCH   1   5
BRANCH   3  36
ATOM     36  CA  GLY A   4       0.657   6.228  14.857  0.00  0.00    +0.176 C 
BRANCH  36  37
ATOM     37  C   GLY A   4      -0.173   4.961  14.923  0.00  0.00    +0.243 C 
ATOM     38  O   GLY A   4      -1.158   4.899  15.651  0.00  0.00    -0.273 OA
ATOM     39  N   ALA A   5       0.226   3.941  14.170  0.00  0.00    -0.297 N 
ATOM     40  H   ALA A   5       1.086   4.036  13.593  0.00  0.00    +0.150 HD
BRANCH  39  41
ATOM     41  CA  ALA A   5      -0.525   2.691  14.141  0.00  0.00    +0.149 C 
ATOM     42  CB  ALA A   5       0.146   1.705  13.194  0.00  0.00    +0.031 C 
BRANCH  41  43
ATOM     43  C   ALA A   5      -0.698   2.062  15.523  0.00  0.00    +0.241 C 
ATOM     44  N   PHE A   6       0.212   2.361  16.440  0.00  0.00    -0.297 N 
ATOM     45  H   PHE A   6       0.986   3.013  16.202  0.00  0.00    +0.150 HD
ATOM     46  O   ALA A   5      -1.662   1.337  15.765  0.00  0.00    -0.273 OA
BRANCH  44  47
ATOM     47  CA  PHE A   6       0.140   1.785  17.782  0.00  0.00    +0.153 C 
BRANCH  47  48
ATOM     48  C   PHE A   6      -0.533   2.662  18.837  0.00  0.00    +0.241 C 
ATOM     49  O   PHE A   6      -0.678   2.249  19.991  0.00  0.00    -0.273 OA
ATOM     50  N   LEU A   7      -0.944   3.868  18.463  0.00  0.00    -0.298 N 
ATOM     51  H   LEU A   7      -0.836   4.170  17.474  0.00  0.00    +0.150 HD
BRANCH  50  52
ATOM     52  CA  LEU A   7      -1.548   4.772  19.441  0.00  0.00    +0.137 C 
BRANCH  52  53
ATOM     53  C   LEU A   7      -2.939   5.248  19.027  0.00  0.00    +0.227 C 
ATOM     54  O   LEU A   7      -3.437   4.891  17.960  0.00  0.00    -0.286 OA
ENDBRANCH  52  53
BRANCH  52  55
ATOM     55  CB  LEU A   7      -0.632   5.991  19.660  0.00  0.00    +0.028 C 
BRANCH  55  56
ATOM     56  CG  LEU A   7       0.783   5.854  20.252  0.00  0.00    +0.002 C 
ATOM     57  CD2 LEU A   7       0.770   5.505  21.743  0.00  0.00    +0.000 C 
ATOM     58  CD1 LEU A   7       1.522   4.801  19.478  0.00  0.00    +0.000 C 
ENDBRANCH  55  56
ENDBRANCH  52  55
ENDBRANCH  50  52
ENDBRANCH  47  48
BRANCH  47  59
ATOM     59  CB  PHE A   6       1.553   1.442  18.262  0.00  0.00    +0.055 C 
BRANCH  59  60
ATOM     60  CG  PHE A   6       2.362   0.667  17.260  0.00  0.00    -0.020 A 
ATOM     61  CD2 PHE A   6       2.094  -0.676  17.018  0.00  0.00    -0.004 A 
ATOM     62  CE2 PHE A   6       2.831  -1.392  16.077  0.00  0.00    -0.000 A 
ATOM     63  CZ  PHE A   6       3.850  -0.764  15.366  0.00  0.00    -0.000 A 
ATOM     64  CE1 PHE A   6       4.129   0.580  15.600  0.00  0.00    -0.000 A 
ATOM     65  CD1 PHE A   6       3.384   1.288  16.546  0.00  0.00    -0.004 A 
ENDBRANCH  59  60
ENDBRANCH  47  59
ENDBRANCH  44  47
ENDBRANCH  41  43
ENDBRANCH  39  41
ENDBRANCH  36  37
ENDBRANCH   3  36
TORSDOF 26
REMARK  Name = ../refined-set-2016/3lcv/3lcv_pocket.pdb
REMARK  235 active torsions:
REMARK  status: ('A' for Active; 'I' for Inactive)
REMARK    1  A    between atoms: _1  and  _3
REMARK    2  A    between atoms: _3  and  _4
REMARK    3  A    between atoms: _3  and  _6
REMARK    4  A    between atoms: _9  and  _11
REMARK    5  A    between atoms: _11  and  _12
REMARK    6  A    between atoms: _15  and  _17
REMARK    7  A    between atoms: _17  and  _18
REMARK    8  A    between atoms: _17  and  _20
REMARK    9  A    between atoms: _20  and  _21
REMARK   10  A    between atoms: _24  and  _26
REMARK   11  A    between atoms: _26  and  _27
REMARK   12  A    between atoms: _26  and  _29
REMARK   13  A    between atoms: _29  and  _30
REMARK   14  A    between atoms: _30  and  _31
REMARK   15  A    between atoms: _31  and  _32
REMARK   16  A    between atoms: _41  and  _43
REMARK   17  A    between atoms: _43  and  _44
REMARK   18  A    between atoms: _43  and  _46
REMARK   19  A    between atoms: _46  and  _47
REMARK   20  A    between atoms: _50  and  _52
REMARK   21  A    between atoms: _52  and  _53
REMARK   22  A    between atoms: _55  and  _57
REMARK   23  A    between atoms: _57  and  _58
REMARK   24  A    between atoms: _57  and  _60
REMARK   25  A    between atoms: _60  and  _61
REMARK   26  A    between atoms: _64  and  _66
REMARK   27  A    between atoms: _66  and  _67
REMARK   28  A    between atoms: _66  and  _69
REMARK   29  A    between atoms: _69  and  _70
REMARK   30  A    between atoms: _70  and  _71
REMARK   31  A    between atoms: _74  and  _76
REMARK   32  A    between atoms: _76  and  _77
REMARK   33  A    between atoms: _76  and  _79
REMARK   34  A    between atoms: _79  and  _80
REMARK   35  A    between atoms: _83  and  _85
REMARK   36  A    between atoms: _85  and  _86
REMARK   37  A    between atoms: _85  and  _88
REMARK   38  A    between atoms: _88  and  _89
REMARK   39  A    between atoms: _94  and  _95
REMARK   40  A    between atoms: _97  and  _99
REMARK   41  A    between atoms: _99  and  _100
REMARK   42  A    between atoms: _102  and  _104
REMARK   43  A    between atoms: _104  and  _105
REMARK   44  A    between atoms: _108  and  _110
REMARK   45  A    between atoms: _110  and  _111
REMARK   46  A    between atoms: _110  and  _113
REMARK   47  A    between atoms: _113  and  _114
REMARK   48  A    between atoms: _120  and  _122
REMARK   49  A    between atoms: _122  and  _123
REMARK   50  A    between atoms: _122  and  _125
REMARK   51  A    between atoms: _125  and  _126
REMARK   52  A    between atoms: _129  and  _131
REMARK   53  A    between atoms: _131  and  _132
REMARK   54  A    between atoms: _131  and  _134
REMARK   55  A    between atoms: _134  and  _135
REMARK   56  A    between atoms: _135  and  _136
REMARK   57  A    between atoms: _138  and  _140
REMARK   58  A    between atoms: _140  and  _141
REMARK   59  A    between atoms: _140  and  _143
REMARK   60  A    between atoms: _143  and  _144
REMARK   61  A    between atoms: _149  and  _151
REMARK   62  A    between atoms: _151  and  _152
REMARK   63  A    between atoms: _151  and  _154
REMARK   64  A    between atoms: _154  and  _155
REMARK   65  A    between atoms: _158  and  _160
REMARK   66  A    between atoms: _160  and  _161
REMARK   67  A    between atoms: _160  and  _163
REMARK   68  A    between atoms: _163  and  _164
REMARK   69  A    between atoms: _166  and  _168
REMARK   70  A    between atoms: _168  and  _169
REMARK   71  A    between atoms: _168  and  _171
REMARK   72  A    between atoms: _171  and  _172
REMARK   73  A    between atoms: _175  and  _177
REMARK   74  A    between atoms: _177  and  _178
REMARK   75  A    between atoms: _177  and  _180
REMARK   76  A    between atoms: _180  and  _181
REMARK   77  A    between atoms: _181  and  _182
REMARK   78  A    between atoms: _182  and  _183
REMARK   79  A    between atoms: _192  and  _194
REMARK   80  A    between atoms: _194  and  _195
REMARK   81  A    between atoms: _194  and  _197
REMARK   82  A    between atoms: _197  and  _198
REMARK   83  A    between atoms: _198  and  _199
REMARK   84  A    between atoms: _202  and  _204
REMARK   85  A    between atoms: _204  and  _205
REMARK   86  A    between atoms: _204  and  _207
REMARK   87  A    between atoms: _207  and  _208
REMARK   88  A    between atoms: _208  and  _209
REMARK   89  A    between atoms: _209  and  _210
REMARK   90  A    between atoms: _219  and  _221
REMARK   91  A    between atoms: _221  and  _222
REMARK   92  A    between atoms: _221  and  _224
REMARK   93  A    between atoms: _224  and  _225
REMARK   94  A    between atoms: _228  and  _230
REMARK   95  A    between atoms: _230  and  _231
REMARK   96  A    between atoms: _230  and  _233
REMARK   97  A    between atoms: _233  and  _234
REMARK   98  A    between atoms: _240  and  _242
REMARK   99  A    between atoms: _242  and  _243
REMARK  100  A    between atoms: _242  and  _245
REMARK  101  A    between atoms: _245  and  _246
REMARK  102  A    between atoms: _251  and  _252
REMARK  103  A    between atoms: _254  and  _256
REMARK  104  A    between atoms: _256  and  _257
REMARK  105  A    between atoms: _256  and  _259
REMARK  106  A    between atoms: _259  and  _260
REMARK  107  A    between atoms: _263  and  _265
REMARK  108  A    between atoms: _265  and  _266
REMARK  109  A    between atoms: _265  and  _268
REMARK  110  A    between atoms: _268  and  _269
REMARK  111  A    between atoms: _272  and  _274
REMARK  112  A    between atoms: _274  and  _275
REMARK  113  A    between atoms: _278  and  _280
REMARK  114  A    between atoms: _280  and  _281
REMARK  115  A    between atoms: _280  and  _283
REMARK  116  A    between atoms: _285  and  _287
REMARK  117  A    between atoms: _287  and  _288
REMARK  118  A    between atoms: _290  and  _292
REMARK  119  A    between atoms: _292  and  _293
REMARK  120  A    between atoms: _292  and  _295
REMARK  121  A    between atoms: _295  and  _296
REMARK  122  A    between atoms: _299  and  _301
REMARK  123  A    between atoms: _301  and  _302
REMARK  124  A    between atoms: _301  and  _304
REMARK  125  A    between atoms: _304  and  _305
REMARK  126  A    between atoms: _311  and  _312
REMARK  127  A    between atoms: _317  and  _319
REMARK  128  A    between atoms: _319  and  _320
REMARK  129  A    between atoms: _319  and  _322
REMARK  130  A    between atoms: _322  and  _323
REMARK  131  A    between atoms: _326  and  _328
REMARK  132  A    between atoms: _328  and  _329
REMARK  133  A    between atoms: _328  and  _331
REMARK  134  A    between atoms: _331  and  _332
REMARK  135  A    between atoms: _337  and  _338
REMARK  136  A    between atoms: _340  and  _342
REMARK  137  A    between atoms: _342  and  _343
REMARK  138  A    between atoms: _342  and  _345
REMARK  139  A    between atoms: _345  and  _346
REMARK  140  A    between atoms: _348  and  _350
REMARK  141  A    between atoms: _350  and  _351
REMARK  142  A    between atoms: _350  and  _353
REMARK  143  A    between atoms: _353  and  _354
REMARK  144  A    between atoms: _357  and  _359
REMARK  145  A    between atoms: _359  and  _360
REMARK  146  A    between atoms: _359  and  _362
REMARK  147  A    between atoms: _362  and  _363
REMARK  148  A    between atoms: _366  and  _368
REMARK  149  A    between atoms: _368  and  _369
REMARK  150  A    between atoms: _368  and  _371
REMARK  151  A    between atoms: _371  and  _372
REMARK  152  A    between atoms: _375  and  _377
REMARK  153  A    between atoms: _377  and  _378
REMARK  154  A    between atoms: _377  and  _380
REMARK  155  A    between atoms: _380  and  _381
REMARK  156  A    between atoms: _384  and  _386
REMARK  157  A    between atoms: _386  and  _387
REMARK  158  A    between atoms: _386  and  _389
REMARK  159  A    between atoms: _392  and  _394
REMARK  160  A    between atoms: _394  and  _395
REMARK  161  A    between atoms: _398  and  _400
REMARK  162  A    between atoms: _400  and  _401
REMARK  163  A    between atoms: _400  and  _403
REMARK  164  A    between atoms: _403  and  _404
REMARK  165  A    between atoms: _407  and  _409
REMARK  166  A    between atoms: _409  and  _410
REMARK  167  A    between atoms: _409  and  _412
REMARK  168  A    between atoms: _412  and  _413
REMARK  169  A    between atoms: _416  and  _418
REMARK  170  A    between atoms: _418  and  _419
REMARK  171  A    between atoms: _418  and  _421
REMARK  172  A    between atoms: _421  and  _422
REMARK  173  A    between atoms: _425  and  _427
REMARK  174  A    between atoms: _427  and  _428
REMARK  175  A    between atoms: _427  and  _430
REMARK  176  A    between atoms: _430  and  _431
REMARK  177  A    between atoms: _431  and  _432
REMARK  178  A    between atoms: _435  and  _437
REMARK  179  A    between atoms: _437  and  _438
REMARK  180  A    between atoms: _437  and  _440
REMARK  181  A    between atoms: _440  and  _441
REMARK  182  A    between atoms: _444  and  _446
REMARK  183  A    between atoms: _446  and  _447
REMARK  184  A    between atoms: _446  and  _449
REMARK  185  A    between atoms: _449  and  _450
REMARK  186  A    between atoms: _453  and  _455
REMARK  187  A    between atoms: _455  and  _456
REMARK  188  A    between atoms: _455  and  _458
REMARK  189  A    between atoms: _458  and  _459
REMARK  190  A    between atoms: _462  and  _464
REMARK  191  A    between atoms: _464  and  _465
REMARK  192  A    between atoms: _464  and  _467
REMARK  193  A    between atoms: _467  and  _468
REMARK  194  A    between atoms: _471  and  _473
REMARK  195  A    between atoms: _473  and  _474
REMARK  196  A    between atoms: _473  and  _476
REMARK  197  A    between atoms: _476  and  _477
REMARK  198  A    between atoms: _477  and  _478
REMARK  199  A    between atoms: _478  and  _479
REMARK  200  A    between atoms: _479  and  _480
REMARK  201  A    between atoms: _484  and  _486
REMARK  202  A    between atoms: _486  and  _487
REMARK  203  A    between atoms: _486  and  _489
REMARK  204  A    between atoms: _489  and  _490
REMARK  205  A    between atoms: _493  and  _495
REMARK  206  A    between atoms: _495  and  _496
REMARK  207  A    between atoms: _495  and  _498
REMARK  208  A    between atoms: _498  and  _499
REMARK  209  A    between atoms: _503  and  _504
REMARK  210  A    between atoms: _509  and  _511
REMARK  211  A    between atoms: _511  and  _512
REMARK  212  A    between atoms: _511  and  _514
REMARK  213  A    between atoms: _516  and  _518
REMARK  214  A    between atoms: _518  and  _519
REMARK  215  A    between atoms: _518  and  _521
REMARK  216  A    between atoms: _521  and  _522
REMARK  217  A    between atoms: _525  and  _527
REMARK  218  A    between atoms: _527  and  _528
REMARK  219  A    between atoms: _527  and  _530
REMARK  220  A    between atoms: _530  and  _531
REMARK  221  A    between atoms: _531  and  _532
REMARK  222  A    between atoms: _537  and  _539
REMARK  223  A    between atoms: _539  and  _540
REMARK  224  A    between atoms: _539  and  _542
REMARK  225  A    between atoms: _542  and  _543
REMARK  226  A    between atoms: _545  and  _547
REMARK  227  A    between atoms: _547  and  _548
REMARK  228  A    between atoms: _547  and  _550
REMARK  229  A    between atoms: _550  and  _551
REMARK  230  A    between atoms: _555  and  _556
REMARK  231  A    between atoms: _561  and  _563
REMARK  232  A    between atoms: _563  and  _564
REMARK  233  A    between atoms: _563  and  _566
REMARK  234  A    between atoms: _566  and  _567
REMARK  235  A    between atoms: _567  and  _568
REMARK                            x       y       z     vdW  Elec       q    Type
REMARK                         _______ _______ _______ _____ _____    ______ ____
ROOT
ATOM      1  CA  UNL     1      -0.252   0.133  29.164  0.00  0.00    +0.000 C 
ENDROOT
BRANCH   1   2
ATOM      2  N   UNL     1      -0.966   0.850  30.214  0.00  0.00    +0.000 NA
ATOM      3  H   UNL     1      -0.909   0.506  31.194  0.00  0.00    +0.000 HD
ENDBRANCH   1   2
BRANCH   1   4
ATOM      4  C   UNL     1      -1.155  -0.311  28.016  0.00  0.00    +0.000 C 
ATOM      5  O   UNL     1      -0.702  -0.406  26.870  0.00  0.00    +0.000 OA
ENDBRANCH   1   4
BRANCH   1   6
ATOM      6  C   UNL     1       0.485  -1.088  29.750  0.00  0.00    +0.000 C 
BRANCH   6   7
ATOM      7  C   UNL     1       1.774  -0.734  30.492  0.00  0.00    +0.000 C 
BRANCH   7   8
ATOM      8 SE   UNL     1       2.822  -2.244  31.109  0.00  0.00    +0.000 Se
ATOM      9  C   UNL     1       2.760  -3.347  29.545  0.00  0.00    +0.000 C 
ENDBRANCH   7   8
ENDBRANCH   6   7
ENDBRANCH   1   6
TORSDOF 5
REMARK  Name = ../refined-set-2016/3lcv/3lcv_pocket.pdb
REMARK  235 active torsions:
REMARK  status: ('A' for Active; 'I' for Inactive)
REMARK    1  A    between atoms: _1  and  _3
REMARK    2  A    between atoms: _3  and  _4
REMARK    3  A    between atoms: _3  and  _6
REMARK    4  A    between atoms: _9  and  _11
REMARK    5  A    between atoms: _11  and  _12
REMARK    6  A    between atoms: _15  and  _17
REMARK    7  A    between atoms: _17  and  _18
REMARK    8  A    between atoms: _17  and  _20
REMARK    9  A    between atoms: _20  and  _21
REMARK   10  A    between atoms: _24  and  _26
REMARK   11  A    between atoms: _26  and  _27
REMARK   12  A    between atoms: _26  and  _29
REMARK   13  A    between atoms: _29  and  _30
REMARK   14  A    between atoms: _30  and  _31
REMARK   15  A    between atoms: _31  and  _32
REMARK   16  A    between atoms: _41  and  _43
REMARK   17  A    between atoms: _43  and  _44
REMARK   18  A    between atoms: _43  and  _46
REMARK   19  A    between atoms: _46  and  _47
REMARK   20  A    between atoms: _50  and  _52
REMARK   21  A    between atoms: _52  and  _53
REMARK   22  A    between atoms: _55  and  _57
REMARK   23  A    between atoms: _57  and  _58
REMARK   24  A    between atoms: _57  and  _60
REMARK   25  A    between atoms: _60  and  _61
REMARK   26  A    between atoms: _64  and  _66
REMARK   27  A    between atoms: _66  and  _67
REMARK   28  A    between atoms: _66  and  _69
REMARK   29  A    between atoms: _69  and  _70
REMARK   30  A    between atoms: _70  and  _71
REMARK   31  A    between atoms: _74  and  _76
REMARK   32  A    between atoms: _76  and  _77
REMARK   33  A    between atoms: _76  and  _79
REMARK   34  A    between atoms: _79  and  _80
REMARK   35  A    between atoms: _83  and  _85
REMARK   36  A    between atoms: _85  and  _86
REMARK   37  A    between atoms: _85  and  _88
REMARK   38  A    between atoms: _88  and  _89
REMARK   39  A    between atoms: _94  and  _95
REMARK   40  A    between atoms: _97  and  _99
REMARK   41  A    between atoms: _99  and  _100
REMARK   42  A    between atoms: _102  and  _104
REMARK   43  A    between atoms: _104  and  _105
REMARK   44  A    between atoms: _108  and  _110
REMARK   45  A    between atoms: _110  and  _111
REMARK   46  A    between atoms: _110  and  _113
REMARK   47  A    between atoms: _113  and  _114
REMARK   48  A    between atoms: _120  and  _122
REMARK   49  A    between atoms: _122  and  _123
REMARK   50  A    between atoms: _122  and  _125
REMARK   51  A    between atoms: _125  and  _126
REMARK   52  A    between atoms: _129  and  _131
REMARK   53  A    between atoms: _131  and  _132
REMARK   54  A    between atoms: _131  and  _134
REMARK   55  A    between atoms: _134  and  _135
REMARK   56  A    between atoms: _135  and  _136
REMARK   57  A    between atoms: _138  and  _140
REMARK   58  A    between atoms: _140  and  _141
REMARK   59  A    between atoms: _140  and  _143
REMARK   60  A    between atoms: _143  and  _144
REMARK   61  A    between atoms: _149  and  _151
REMARK   62  A    between atoms: _151  and  _152
REMARK   63  A    between atoms: _151  and  _154
REMARK   64  A    between atoms: _154  and  _155
REMARK   65  A    between atoms: _158  and  _160
REMARK   66  A    between atoms: _160  and  _161
REMARK   67  A    between atoms: _160  and  _163
REMARK   68  A    between atoms: _163  and  _164
REMARK   69  A    between atoms: _166  and  _168
REMARK   70  A    between atoms: _168  and  _169
REMARK   71  A    between atoms: _168  and  _171
REMARK   72  A    between atoms: _171  and  _172
REMARK   73  A    between atoms: _175  and  _177
REMARK   74  A    between atoms: _177  and  _178
REMARK   75  A    between atoms: _177  and  _180
REMARK   76  A    between atoms: _180  and  _181
REMARK   77  A    between atoms: _181  and  _182
REMARK   78  A    between atoms: _182  and  _183
REMARK   79  A    between atoms: _192  and  _194
REMARK   80  A    between atoms: _194  and  _195
REMARK   81  A    between atoms: _194  and  _197
REMARK   82  A    between atoms: _197  and  _198
REMARK   83  A    between atoms: _198  and  _199
REMARK   84  A    between atoms: _202  and  _204
REMARK   85  A    between atoms: _204  and  _205
REMARK   86  A    between atoms: _204  and  _207
REMARK   87  A    between atoms: _207  and  _208
REMARK   88  A    between atoms: _208  and  _209
REMARK   89  A    between atoms: _209  and  _210
REMARK   90  A    between atoms: _219  and  _221
REMARK   91  A    between atoms: _221  and  _222
REMARK   92  A    between atoms: _221  and  _224
REMARK   93  A    between atoms: _224  and  _225
REMARK   94  A    between atoms: _228  and  _230
REMARK   95  A    between atoms: _230  and  _231
REMARK   96  A    between atoms: _230  and  _233
REMARK   97  A    between atoms: _233  and  _234
REMARK   98  A    between atoms: _240  and  _242
REMARK   99  A    between atoms: _242  and  _243
REMARK  100  A    between atoms: _242  and  _245
REMARK  101  A    between atoms: _245  and  _246
REMARK  102  A    between atoms: _251  and  _252
REMARK  103  A    between atoms: _254  and  _256
REMARK  104  A    between atoms: _256  and  _257
REMARK  105  A    between atoms: _256  and  _259
REMARK  106  A    between atoms: _259  and  _260
REMARK  107  A    between atoms: _263  and  _265
REMARK  108  A    between atoms: _265  and  _266
REMARK  109  A    between atoms: _265  and  _268
REMARK  110  A    between atoms: _268  and  _269
REMARK  111  A    between atoms: _272  and  _274
REMARK  112  A    between atoms: _274  and  _275
REMARK  113  A    between atoms: _278  and  _280
REMARK  114  A    between atoms: _280  and  _281
REMARK  115  A    between atoms: _280  and  _283
REMARK  116  A    between atoms: _285  and  _287
REMARK  117  A    between atoms: _287  and  _288
REMARK  118  A    between atoms: _290  and  _292
REMARK  119  A    between atoms: _292  and  _293
REMARK  120  A    between atoms: _292  and  _295
REMARK  121  A    between atoms: _295  and  _296
REMARK  122  A    between atoms: _299  and  _301
REMARK  123  A    between atoms: _301  and  _302
REMARK  124  A    between atoms: _301  and  _304
REMARK  125  A    between atoms: _304  and  _305
REMARK  126  A    between atoms: _311  and  _312
REMARK  127  A    between atoms: _317  and  _319
REMARK  128  A    between atoms: _319  and  _320
REMARK  129  A    between atoms: _319  and  _322
REMARK  130  A    between atoms: _322  and  _323
REMARK  131  A    between atoms: _326  and  _328
REMARK  132  A    between atoms: _328  and  _329
REMARK  133  A    between atoms: _328  and  _331
REMARK  134  A    between atoms: _331  and  _332
REMARK  135  A    between atoms: _337  and  _338
REMARK  136  A    between atoms: _340  and  _342
REMARK  137  A    between atoms: _342  and  _343
REMARK  138  A    between atoms: _342  and  _345
REMARK  139  A    between atoms: _345  and  _346
REMARK  140  A    between atoms: _348  and  _350
REMARK  141  A    between atoms: _350  and  _351
REMARK  142  A    between atoms: _350  and  _353
REMARK  143  A    between atoms: _353  and  _354
REMARK  144  A    between atoms: _357  and  _359
REMARK  145  A    between atoms: _359  and  _360
REMARK  146  A    between atoms: _359  and  _362
REMARK  147  A    between atoms: _362  and  _363
REMARK  148  A    between atoms: _366  and  _368
REMARK  149  A    between atoms: _368  and  _369
REMARK  150  A    between atoms: _368  and  _371
REMARK  151  A    between atoms: _371  and  _372
REMARK  152  A    between atoms: _375  and  _377
REMARK  153  A    between atoms: _377  and  _378
REMARK  154  A    between atoms: _377  and  _380
REMARK  155  A    between atoms: _380  and  _381
REMARK  156  A    between atoms: _384  and  _386
REMARK  157  A    between atoms: _386  and  _387
REMARK  158  A    between atoms: _386  and  _389
REMARK  159  A    between atoms: _392  and  _394
REMARK  160  A    between atoms: _394  and  _395
REMARK  161  A    between atoms: _398  and  _400
REMARK  162  A    between atoms: _400  and  _401
REMARK  163  A    between atoms: _400  and  _403
REMARK  164  A    between atoms: _403  and  _404
REMARK  165  A    between atoms: _407  and  _409
REMARK  166  A    between atoms: _409  and  _410
REMARK  167  A    between atoms: _409  and  _412
REMARK  168  A    between atoms: _412  and  _413
REMARK  169  A    between atoms: _416  and  _418
REMARK  170  A    between atoms: _418  and  _419
REMARK  171  A    between atoms: _418  and  _421
REMARK  172  A    between atoms: _421  and  _422
REMARK  173  A    between atoms: _425  and  _427
REMARK  174  A    between atoms: _427  and  _428
REMARK  175  A    between atoms: _427  and  _430
REMARK  176  A    between atoms: _430  and  _431
REMARK  177  A    between atoms: _431  and  _432
REMARK  178  A    between atoms: _435  and  _437
REMARK  179  A    between atoms: _437  and  _438
REMARK  180  A    between atoms: _437  and  _440
REMARK  181  A    between atoms: _440  and  _441
REMARK  182  A    between atoms: _444  and  _446
REMARK  183  A    between atoms: _446  and  _447
REMARK  184  A    between atoms: _446  and  _449
REMARK  185  A    between atoms: _449  and  _450
REMARK  186  A    between atoms: _453  and  _455
REMARK  187  A    between atoms: _455  and  _456
REMARK  188  A    between atoms: _455  and  _458
REMARK  189  A    between atoms: _458  and  _459
REMARK  190  A    between atoms: _462  and  _464
REMARK  191  A    between atoms: _464  and  _465
REMARK  192  A    between atoms: _464  and  _467
REMARK  193  A    between atoms: _467  and  _468
REMARK  194  A    between atoms: _471  and  _473
REMARK  195  A    between atoms: _473  and  _474
REMARK  196  A    between atoms: _473  and  _476
REMARK  197  A    between atoms: _476  and  _477
REMARK  198  A    between atoms: _477  and  _478
REMARK  199  A    between atoms: _478  and  _479
REMARK  200  A    between atoms: _479  and  _480
REMARK  201  A    between atoms: _484  and  _486
REMARK  202  A    between atoms: _486  and  _487
REMARK  203  A    between atoms: _486  and  _489
REMARK  204  A    between atoms: _489  and  _490
REMARK  205  A    between atoms: _493  and  _495
REMARK  206  A    between atoms: _495  and  _496
REMARK  207  A    between atoms: _495  and  _498
REMARK  208  A    between atoms: _498  and  _499
REMARK  209  A    between atoms: _503  and  _504
REMARK  210  A    between atoms: _509  and  _511
REMARK  211  A    between atoms: _511  and  _512
REMARK  212  A    between atoms: _511  and  _514
REMARK  213  A    between atoms: _516  and  _518
REMARK  214  A    between atoms: _518  and  _519
REMARK  215  A    between atoms: _518  and  _521
REMARK  216  A    between atoms: _521  and  _522
REMARK  217  A    between atoms: _525  and  _527
REMARK  218  A    between atoms: _527  and  _528
REMARK  219  A    between atoms: _527  and  _530
REMARK  220  A    between atoms: _530  and  _531
REMARK  221  A    between atoms: _531  and  _532
REMARK  222  A    between atoms: _537  and  _539
REMARK  223  A    between atoms: _539  and  _540
REMARK  224  A    between atoms: _539  and  _542
REMARK  225  A    between atoms: _542  and  _543
REMARK  226  A    between atoms: _545  and  _547
REMARK  227  A    between atoms: _547  and  _548
REMARK  228  A    between atoms: _547  and  _550
REMARK  229  A    between atoms: _550  and  _551
REMARK  230  A    between atoms: _555  and  _556
REMARK  231  A    between atoms: _561  and  _563
REMARK  232  A    between atoms: _563  and  _564
REMARK  233  A    between atoms: _563  and  _566
REMARK  234  A    between atoms: _566  and  _567
REMARK  235  A    between atoms: _567  and  _568
REMARK                            x       y       z     vdW  Elec       q    Type
REMARK                         _______ _______ _______ _____ _____    ______ ____
ROOT
ATOM      1  CA  ARG A   5      -1.596  -4.268  25.150  0.00  0.00    +0.149 C 
ENDROOT
BRANCH   1   4
ATOM      2  C   THR A   4       0.768  -4.090  25.646  0.00  0.00    +0.243 C 
ATOM      3  O   THR A   4       0.719  -5.041  26.433  0.00  0.00    -0.273 OA
ATOM      4  N   ARG A   5      -0.293  -3.646  24.978  0.00  0.00    -0.297 N 
ATOM      5  H   ARG A   5      -0.189  -2.844  24.324  0.00  0.00    +0.150 HD
BRANCH   2   6
ATOM      6  CA  THR A   4       2.070  -3.354  25.387  0.00  0.00    +0.176 C 
BRANCH   6   8
ATOM      7  C   SER A   3       2.127  -3.745  23.008  0.00  0.00    +0.243 C 
ATOM      8  N   THR A   4       2.068  -2.873  24.009  0.00  0.00    -0.295 N 
ATOM      9  H   THR A   4       2.021  -1.853  23.812  0.00  0.00    +0.150 HD
ATOM     10  O   SER A   3       2.241  -4.953  23.200  0.00  0.00    -0.273 OA
BRANCH   7  11
ATOM     11  CA  SER A   3       2.102  -3.191  21.589  0.00  0.00    +0.178 C 
BRANCH  11  14
ATOM     12  C   ILE A   2      -0.246  -2.543  21.445  0.00  0.00    +0.241 C 
ATOM     13  O   ILE A   2      -0.616  -3.665  21.796  0.00  0.00    -0.273 OA
ATOM     14  N   SER A   3       1.040  -2.214  21.324  0.00  0.00    -0.295 N 
ATOM     15  H   SER A   3       1.295  -1.248  21.037  0.00  0.00    +0.150 HD
BRANCH  12  16
ATOM     16  CA  ILE A   2      -1.280  -1.471  21.131  0.00  0.00    +0.148 C 
BRANCH  16  19
ATOM     17  C   HIS A   1      -0.694   0.011  22.976  0.00  0.00    +0.239 C 
ATOM     18  O   HIS A   1      -0.564  -0.933  23.757  0.00  0.00    -0.274 OA
ATOM     19  N   ILE A   2      -1.023  -0.150  21.699  0.00  0.00    -0.297 N 
ATOM     20  H   ILE A   2      -1.100   0.687  21.087  0.00  0.00    +0.150 HD
BRANCH  17  21
ATOM     21  CA  HIS A   1      -0.484   1.447  23.449  0.00  0.00    +0.151 C 
BRANCH  21  22
ATOM     22  N   HIS A   1      -1.442   1.662  24.524  0.00  0.00    -0.238 NA
ATOM     23  H   HIS A   1      -1.179   1.410  25.498  0.00  0.00    +0.142 HD
ENDBRANCH  21  22
BRANCH  21  24
ATOM     24  CB  HIS A   1       0.946   1.650  23.971  0.00  0.00    +0.074 C 
BRANCH  24  25
ATOM     25  CG  HIS A   1       1.997   1.614  22.902  0.00  0.00    +0.082 A 
ATOM     26  CD2 HIS A   1       2.805   2.588  22.415  0.00  0.00    +0.115 A 
ATOM     27  NE2 HIS A   1       3.609   2.009  21.463  0.00  0.00    -0.221 NA
ATOM     28  CE1 HIS A   1       3.304   0.727  21.364  0.00  0.00    +0.199 A 
ATOM     29  ND1 HIS A   1       2.333   0.463  22.221  0.00  0.00    -0.227 NA
ENDBRANCH  24  25
ENDBRANCH  21  24
ENDBRANCH  17  21
ENDBRANCH  16  19
BRANCH  16  30
ATOM     30  CB  ILE A   2      -1.463  -1.398  19.581  0.00  0.00    +0.027 C 
ATOM     31  CG2 ILE A   2      -1.376  -2.798  18.977  0.00  0.00    +0.002 C 
BRANCH  30  32
ATOM     32  CG1 ILE A   2      -2.834  -0.811  19.236  0.00  0.00    +0.002 C 
ATOM     33  CD1 ILE A   2      -3.092   0.564  19.780  0.00  0.00    +0.000 C 
ENDBRANCH  30  32
ENDBRANCH  16  30
ENDBRANCH  12  16
ENDBRANCH  11  14
BRANCH  11  34
ATOM     34  CB  SER A   3       3.474  -2.596  21.273  0.00  0.00    +0.166 C 
BRANCH  34  35
ATOM     35  OG  SER A   3       3.561  -2.218  19.917  0.00  0.00    -0.380 OA
ATOM     36  H   SER A   3       3.420  -3.013  19.344  0.00  0.00    +0.211 HD
ENDBRANCH  34  35
ENDBRANCH  11  34
ENDBRANCH   7  11
ENDBRANCH   6   8
BRANCH   6  37
ATOM     37  CB  THR A   4       2.197  -2.202  26.411  0.00  0.00    +0.137 C 
ATOM     38  CG2 THR A   4       3.650  -1.907  26.710  0.00  0.00    +0.034 C 
BRANCH  37  39
ATOM     39  OG1 THR A   4       1.557  -1.028  25.901  0.00  0.00    -0.382 OA
ATOM     40  HG1 THR A   4       0.599  -1.219  25.740  0.00  0.00    +0.210 HD
ENDBRANCH  37  39
ENDBRANCH   6  37
ENDBRANCH   2   6
ENDBRANCH   1   4
BRANCH   1  41
ATOM     41  C   ARG A   5      -1.533  -5.744  24.798  0.00  0.00    +0.241 C 
ATOM     42  O   ARG A   5      -2.093  -6.574  25.504  0.00  0.00    -0.273 OA
ATOM     43  N   GLU A   6      -0.831  -6.060  23.712  0.00  0.00    -0.297 N 
ATOM     44  H   GLU A   6      -0.367  -5.300  23.175  0.00  0.00    +0.150 HD
BRANCH  43  45
ATOM     45  CA  GLU A   6      -0.691  -7.438  23.249  0.00  0.00    +0.149 C 
BRANCH  45  46
ATOM     46  C   GLU A   6       0.026  -8.356  24.231  0.00  0.00    +0.241 C 
ATOM     47  N   ARG A   7       0.884  -7.792  25.073  0.00  0.00    -0.297 N 
ATOM     48  H   ARG A   7       1.010  -6.760  25.068  0.00  0.00    +0.150 HD
ATOM     49  O   GLU A   6      -0.192  -9.562  24.231  0.00  0.00    -0.273 OA
BRANCH  47  50
ATOM     50  CA  ARG A   7       1.650  -8.610  26.004  0.00  0.00    +0.149 C 
BRANCH  50  51
ATOM     51  C   ARG A   7       1.029  -8.773  27.386  0.00  0.00    +0.241 C 
ATOM     52  O   ARG A   7       1.404  -9.684  28.123  0.00  0.00    -0.273 OA
ATOM     53  N   LEU A   8       0.071  -7.912  27.730  0.00  0.00    -0.298 N 
ATOM     54  H   LEU A   8      -0.229  -7.185  27.050  0.00  0.00    +0.150 HD
BRANCH  53  55
ATOM     55  CA  LEU A   8      -0.568  -7.970  29.048  0.00  0.00    +0.137 C 
BRANCH  55  56
ATOM     56  C   LEU A   8      -1.128  -9.338  29.460  0.00  0.00    +0.227 C 
ATOM     57  O   LEU A   8      -1.045  -9.712  30.625  0.00  0.00    -0.286 OA
ENDBRANCH  55  56
BRANCH  55  58
ATOM     58  CB  LEU A   8      -1.675  -6.906  29.163  0.00  0.00    +0.028 C 
BRANCH  58  59
ATOM     59  CG  LEU A   8      -1.258  -5.444  28.963  0.00  0.00    +0.002 C 
ATOM     60  CD2 LEU A   8      -0.011  -5.141  29.769  0.00  0.00    +0.000 C 
ATOM     61  CD1 LEU A   8      -2.393  -4.521  29.387  0.00  0.00    +0.000 C 
ENDBRANCH  58  59
ENDBRANCH  55  58
ENDBRANCH  53  55
ENDBRANCH  50  51
BRANCH  50  62
ATOM     62  CB  ARG A   7       3.071  -8.037  26.125  0.00  0.00    +0.033 C 
BRANCH  62  63
ATOM     63  CG  ARG A   7       4.070  -8.900  26.898  0.00  0.00    +0.045 C 
BRANCH  63  64
ATOM     64  CD  ARG A   7       5.505  -8.436  26.616  0.00  0.00    +0.174 C 
BRANCH  64  65
ATOM     65  NE  ARG A   7       5.561  -6.993  26.749  0.00  0.00    -0.265 N 
ATOM     66  HE  ARG A   7       5.326  -6.589  27.678  0.00  0.00    +0.259 HD
ATOM     67  CZ  ARG A   7       5.889  -6.144  25.779  0.00  0.00    +0.342 C 
ATOM     68  NH2 ARG A   7       5.795  -4.850  26.010  0.00  0.00    -0.292 N 
ATOM     69 HH21 ARG A   7       5.469  -4.510  26.937  0.00  0.00    +0.255 HD
ATOM     70 HH22 ARG A   7       6.047  -4.169  25.265  0.00  0.00    +0.255 HD
ATOM     71  NH1 ARG A   7       6.230  -6.571  24.572  0.00  0.00    -0.292 N 
ATOM     72 HH11 ARG A   7       6.245  -7.590  24.366  0.00  0.00    +0.255 HD
ATOM     73 HH12 ARG A   7       6.482  -5.887  23.830  0.00  0.00    +0.255 HD
ENDBRANCH  64  65
ENDBRANCH  63  64
ENDBRANCH  62  63
ENDBRANCH  50  62
ENDBRANCH  47  50
ENDBRANCH  45  46
BRANCH  45  74
ATOM     74  CB  GLU A   6       0.063  -7.472  21.918  0.00  0.00    +0.041 C 
BRANCH  74  75
ATOM     75  CG  GLU A   6      -0.678  -6.848  20.750  0.00  0.00    +0.116 C 
BRANCH  75  76
ATOM     76  CD  GLU A   6       0.206  -6.673  19.520  0.00  0.00    +0.365 C 
ATOM     77  OE2 GLU A   6       1.442  -6.867  19.624  0.00  0.00    -0.246 OA
ATOM     78  OE1 GLU A   6      -0.335  -6.331  18.451  0.00  0.00    -0.246 OA
ENDBRANCH  75  76
ENDBRANCH  74  75
ENDBRANCH  45  74
ENDBRANCH  43  45
ENDBRANCH   1  41
BRANCH   1  79
ATOM     79  CB  ARG A   5      -2.639  -3.579  24.272  0.00  0.00    +0.033 C 
BRANCH  79  80
ATOM     80  CG  ARG A   5      -4.054  -4.016  24.589  0.00  0.00    +0.045 C 
BRANCH  80  81
ATOM     81  CD  ARG A   5      -4.989  -2.840  24.430  0.00  0.00    +0.174 C 
BRANCH  81  82
ATOM     82  NE  ARG A   5      -5.538  -2.739  23.088  0.00  0.00    -0.265 N 
ATOM     83  CZ  ARG A   5      -6.007  -1.618  22.549  0.00  0.00    +0.342 C 
ATOM     84  NH2 ARG A   5      -5.979  -0.476  23.228  0.00  0.00    -0.292 N 
ATOM     85 HH21 ARG A   5      -5.587  -0.453  24.191  0.00  0.00    +0.255 HD
ATOM     86 HH22 ARG A   5      -6.349   0.395  22.796  0.00  0.00    +0.255 HD
ATOM     87  NH1 ARG A   5      -6.547  -1.647  21.336  0.00  0.00    -0.292 N 
ATOM     88 HH11 ARG A   5      -6.915  -0.773  20.910  0.00  0.00    +0.255 HD
ATOM     89 HH12 ARG A   5      -6.601  -2.544  20.812  0.00  0.00    +0.255 HD
ATOM     90  HE  ARG A   5      -5.566  -3.603  22.510  0.00  0.00    +0.259 HD
ENDBRANCH  81  82
ENDBRANCH  80  81
ENDBRANCH  79  80
ENDBRANCH   1  79
TORSDOF 37
REMARK  Name = ../refined-set-2016/3lcv/3lcv_pocket.pdb
REMARK  235 active torsions:
REMARK  status: ('A' for Active; 'I' for Inactive)
REMARK    1  A    between atoms: _1  and  _3
REMARK    2  A    between atoms: _3  and  _4
REMARK    3  A    between atoms: _3  and  _6
REMARK    4  A    between atoms: _9  and  _11
REMARK    5  A    between atoms: _11  and  _12
REMARK    6  A    between atoms: _15  and  _17
REMARK    7  A    between atoms: _17  and  _18
REMARK    8  A    between atoms: _17  and  _20
REMARK    9  A    between atoms: _20  and  _21
REMARK   10  A    between atoms: _24  and  _26
REMARK   11  A    between atoms: _26  and  _27
REMARK   12  A    between atoms: _26  and  _29
REMARK   13  A    between atoms: _29  and  _30
REMARK   14  A    between atoms: _30  and  _31
REMARK   15  A    between atoms: _31  and  _32
REMARK   16  A    between atoms: _41  and  _43
REMARK   17  A    between atoms: _43  and  _44
REMARK   18  A    between atoms: _43  and  _46
REMARK   19  A    between atoms: _46  and  _47
REMARK   20  A    between atoms: _50  and  _52
REMARK   21  A    between atoms: _52  and  _53
REMARK   22  A    between atoms: _55  and  _57
REMARK   23  A    between atoms: _57  and  _58
REMARK   24  A    between atoms: _57  and  _60
REMARK   25  A    between atoms: _60  and  _61
REMARK   26  A    between atoms: _64  and  _66
REMARK   27  A    between atoms: _66  and  _67
REMARK   28  A    between atoms: _66  and  _69
REMARK   29  A    between atoms: _69  and  _70
REMARK   30  A    between atoms: _70  and  _71
REMARK   31  A    between atoms: _74  and  _76
REMARK   32  A    between atoms: _76  and  _77
REMARK   33  A    between atoms: _76  and  _79
REMARK   34  A    between atoms: _79  and  _80
REMARK   35  A    between atoms: _83  and  _85
REMARK   36  A    between atoms: _85  and  _86
REMARK   37  A    between atoms: _85  and  _88
REMARK   38  A    between atoms: _88  and  _89
REMARK   39  A    between atoms: _94  and  _95
REMARK   40  A    between atoms: _97  and  _99
REMARK   41  A    between atoms: _99  and  _100
REMARK   42  A    between atoms: _102  and  _104
REMARK   43  A    between atoms: _104  and  _105
REMARK   44  A    between atoms: _108  and  _110
REMARK   45  A    between atoms: _110  and  _111
REMARK   46  A    between atoms: _110  and  _113
REMARK   47  A    between atoms: _113  and  _114
REMARK   48  A    between atoms: _120  and  _122
REMARK   49  A    between atoms: _122  and  _123
REMARK   50  A    between atoms: _122  and  _125
REMARK   51  A    between atoms: _125  and  _126
REMARK   52  A    between atoms: _129  and  _131
REMARK   53  A    between atoms: _131  and  _132
REMARK   54  A    between atoms: _131  and  _134
REMARK   55  A    between atoms: _134  and  _135
REMARK   56  A    between atoms: _135  and  _136
REMARK   57  A    between atoms: _138  and  _140
REMARK   58  A    between atoms: _140  and  _141
REMARK   59  A    between atoms: _140  and  _143
REMARK   60  A    between atoms: _143  and  _144
REMARK   61  A    between atoms: _149  and  _151
REMARK   62  A    between atoms: _151  and  _152
REMARK   63  A    between atoms: _151  and  _154
REMARK   64  A    between atoms: _154  and  _155
REMARK   65  A    between atoms: _158  and  _160
REMARK   66  A    between atoms: _160  and  _161
REMARK   67  A    between atoms: _160  and  _163
REMARK   68  A    between atoms: _163  and  _164
REMARK   69  A    between atoms: _166  and  _168
REMARK   70  A    between atoms: _168  and  _169
REMARK   71  A    between atoms: _168  and  _171
REMARK   72  A    between atoms: _171  and  _172
REMARK   73  A    between atoms: _175  and  _177
REMARK   74  A    between atoms: _177  and  _178
REMARK   75  A    between atoms: _177  and  _180
REMARK   76  A    between atoms: _180  and  _181
REMARK   77  A    between atoms: _181  and  _182
REMARK   78  A    between atoms: _182  and  _183
REMARK   79  A    between atoms: _192  and  _194
REMARK   80  A    between atoms: _194  and  _195
REMARK   81  A    between atoms: _194  and  _197
REMARK   82  A    between atoms: _197  and  _198
REMARK   83  A    between atoms: _198  and  _199
REMARK   84  A    between atoms: _202  and  _204
REMARK   85  A    between atoms: _204  and  _205
REMARK   86  A    between atoms: _204  and  _207
REMARK   87  A    between atoms: _207  and  _208
REMARK   88  A    between atoms: _208  and  _209
REMARK   89  A    between atoms: _209  and  _210
REMARK   90  A    between atoms: _219  and  _221
REMARK   91  A    between atoms: _221  and  _222
REMARK   92  A    between atoms: _221  and  _224
REMARK   93  A    between atoms: _224  and  _225
REMARK   94  A    between atoms: _228  and  _230
REMARK   95  A    between atoms: _230  and  _231
REMARK   96  A    between atoms: _230  and  _233
REMARK   97  A    between atoms: _233  and  _234
REMARK   98  A    between atoms: _240  and  _242
REMARK   99  A    between atoms: _242  and  _243
REMARK  100  A    between atoms: _242  and  _245
REMARK  101  A    between atoms: _245  and  _246
REMARK  102  A    between atoms: _251  and  _252
REMARK  103  A    between atoms: _254  and  _256
REMARK  104  A    between atoms: _256  and  _257
REMARK  105  A    between atoms: _256  and  _259
REMARK  106  A    between atoms: _259  and  _260
REMARK  107  A    between atoms: _263  and  _265
REMARK  108  A    between atoms: _265  and  _266
REMARK  109  A    between atoms: _265  and  _268
REMARK  110  A    between atoms: _268  and  _269
REMARK  111  A    between atoms: _272  and  _274
REMARK  112  A    between atoms: _274  and  _275
REMARK  113  A    between atoms: _278  and  _280
REMARK  114  A    between atoms: _280  and  _281
REMARK  115  A    between atoms: _280  and  _283
REMARK  116  A    between atoms: _285  and  _287
REMARK  117  A    between atoms: _287  and  _288
REMARK  118  A    between atoms: _290  and  _292
REMARK  119  A    between atoms: _292  and  _293
REMARK  120  A    between atoms: _292  and  _295
REMARK  121  A    between atoms: _295  and  _296
REMARK  122  A    between atoms: _299  and  _301
REMARK  123  A    between atoms: _301  and  _302
REMARK  124  A    between atoms: _301  and  _304
REMARK  125  A    between atoms: _304  and  _305
REMARK  126  A    between atoms: _311  and  _312
REMARK  127  A    between atoms: _317  and  _319
REMARK  128  A    between atoms: _319  and  _320
REMARK  129  A    between atoms: _319  and  _322
REMARK  130  A    between atoms: _322  and  _323
REMARK  131  A    between atoms: _326  and  _328
REMARK  132  A    between atoms: _328  and  _329
REMARK  133  A    between atoms: _328  and  _331
REMARK  134  A    between atoms: _331  and  _332
REMARK  135  A    between atoms: _337  and  _338
REMARK  136  A    between atoms: _340  and  _342
REMARK  137  A    between atoms: _342  and  _343
REMARK  138  A    between atoms: _342  and  _345
REMARK  139  A    between atoms: _345  and  _346
REMARK  140  A    between atoms: _348  and  _350
REMARK  141  A    between atoms: _350  and  _351
REMARK  142  A    between atoms: _350  and  _353
REMARK  143  A    between atoms: _353  and  _354
REMARK  144  A    between atoms: _357  and  _359
REMARK  145  A    between atoms: _359  and  _360
REMARK  146  A    between atoms: _359  and  _362
REMARK  147  A    between atoms: _362  and  _363
REMARK  148  A    between atoms: _366  and  _368
REMARK  149  A    between atoms: _368  and  _369
REMARK  150  A    between atoms: _368  and  _371
REMARK  151  A    between atoms: _371  and  _372
REMARK  152  A    between atoms: _375  and  _377
REMARK  153  A    between atoms: _377  and  _378
REMARK  154  A    between atoms: _377  and  _380
REMARK  155  A    between atoms: _380  and  _381
REMARK  156  A    between atoms: _384  and  _386
REMARK  157  A    between atoms: _386  and  _387
REMARK  158  A    between atoms: _386  and  _389
REMARK  159  A    between atoms: _392  and  _394
REMARK  160  A    between atoms: _394  and  _395
REMARK  161  A    between atoms: _398  and  _400
REMARK  162  A    between atoms: _400  and  _401
REMARK  163  A    between atoms: _400  and  _403
REMARK  164  A    between atoms: _403  and  _404
REMARK  165  A    between atoms: _407  and  _409
REMARK  166  A    between atoms: _409  and  _410
REMARK  167  A    between atoms: _409  and  _412
REMARK  168  A    between atoms: _412  and  _413
REMARK  169  A    between atoms: _416  and  _418
REMARK  170  A    between atoms: _418  and  _419
REMARK  171  A    between atoms: _418  and  _421
REMARK  172  A    between atoms: _421  and  _422
REMARK  173  A    between atoms: _425  and  _427
REMARK  174  A    between atoms: _427  and  _428
REMARK  175  A    between atoms: _427  and  _430
REMARK  176  A    between atoms: _430  and  _431
REMARK  177  A    between atoms: _431  and  _432
REMARK  178  A    between atoms: _435  and  _437
REMARK  179  A    between atoms: _437  and  _438
REMARK  180  A    between atoms: _437  and  _440
REMARK  181  A    between atoms: _440  and  _441
REMARK  182  A    between atoms: _444  and  _446
REMARK  183  A    between atoms: _446  and  _447
REMARK  184  A    between atoms: _446  and  _449
REMARK  185  A    between atoms: _449  and  _450
REMARK  186  A    between atoms: _453  and  _455
REMARK  187  A    between atoms: _455  and  _456
REMARK  188  A    between atoms: _455  and  _458
REMARK  189  A    between atoms: _458  and  _459
REMARK  190  A    between atoms: _462  and  _464
REMARK  191  A    between atoms: _464  and  _465
REMARK  192  A    between atoms: _464  and  _467
REMARK  193  A    between atoms: _467  and  _468
REMARK  194  A    between atoms: _471  and  _473
REMARK  195  A    between atoms: _473  and  _474
REMARK  196  A    between atoms: _473  and  _476
REMARK  197  A    between atoms: _476  and  _477
REMARK  198  A    between atoms: _477  and  _478
REMARK  199  A    between atoms: _478  and  _479
REMARK  200  A    between atoms: _479  and  _480
REMARK  201  A    between atoms: _484  and  _486
REMARK  202  A    between atoms: _486  and  _487
REMARK  203  A    between atoms: _486  and  _489
REMARK  204  A    between atoms: _489  and  _490
REMARK  205  A    between atoms: _493  and  _495
REMARK  206  A    between atoms: _495  and  _496
REMARK  207  A    between atoms: _495  and  _498
REMARK  208  A    between atoms: _498  and  _499
REMARK  209  A    between atoms: _503  and  _504
REMARK  210  A    between atoms: _509  and  _511
REMARK  211  A    between atoms: _511  and  _512
REMARK  212  A    between atoms: _511  and  _514
REMARK  213  A    between atoms: _516  and  _518
REMARK  214  A    between atoms: _518  and  _519
REMARK  215  A    between atoms: _518  and  _521
REMARK  216  A    between atoms: _521  and  _522
REMARK  217  A    between atoms: _525  and  _527
REMARK  218  A    between atoms: _527  and  _528
REMARK  219  A    between atoms: _527  and  _530
REMARK  220  A    between atoms: _530  and  _531
REMARK  221  A    between atoms: _531  and  _532
REMARK  222  A    between atoms: _537  and  _539
REMARK  223  A    between atoms: _539  and  _540
REMARK  224  A    between atoms: _539  and  _542
REMARK  225  A    between atoms: _542  and  _543
REMARK  226  A    between atoms: _545  and  _547
REMARK  227  A    between atoms: _547  and  _548
REMARK  228  A    between atoms: _547  and  _550
REMARK  229  A    between atoms: _550  and  _551
REMARK  230  A    between atoms: _555  and  _556
REMARK  231  A    between atoms: _561  and  _563
REMARK  232  A    between atoms: _563  and  _564
REMARK  233  A    between atoms: _563  and  _566
REMARK  234  A    between atoms: _566  and  _567
REMARK  235  A    between atoms: _567  and  _568
REMARK                            x       y       z     vdW  Elec       q    Type
REMARK                         _______ _______ _______ _____ _____    ______ ____
ROOT
ATOM      1  C   PHE A   1       8.275 -12.476  30.985  0.00  0.00    +0.239 C 
ATOM      2  N   TYR A   2       8.069 -11.605  31.962  0.00  0.00    -0.298 N 
ATOM      3  H   TYR A   2       7.104 -11.290  32.187  0.00  0.00    +0.150 HD
ATOM      4  O   PHE A   1       9.399 -12.880  30.690  0.00  0.00    -0.274 OA
ENDROOT
BRANCH   1   5
ATOM      5  CA  PHE A   1       7.048 -12.961  30.223  0.00  0.00    +0.149 C 
BRANCH   5   6
ATOM      6  N   PHE A   1       6.036 -13.566  31.086  0.00  0.00    -0.238 NA
ATOM      7  H   PHE A   1       5.066 -13.192  31.057  0.00  0.00    +0.142 HD
ENDBRANCH   5   6
BRANCH   5   8
ATOM      8  CB  PHE A   1       6.438 -11.785  29.451  0.00  0.00    +0.053 C 
BRANCH   8   9
ATOM      9  CG  PHE A   1       7.357 -11.192  28.415  0.00  0.00    -0.020 A 
ATOM     10  CD2 PHE A   1       8.086 -10.040  28.691  0.00  0.00    -0.004 A 
ATOM     11  CE2 PHE A   1       8.934  -9.475  27.731  0.00  0.00    -0.000 A 
ATOM     12  CZ  PHE A   1       9.054 -10.073  26.480  0.00  0.00    -0.000 A 
ATOM     13  CE1 PHE A   1       8.330 -11.226  26.196  0.00  0.00    -0.000 A 
ATOM     14  CD1 PHE A   1       7.488 -11.781  27.161  0.00  0.00    -0.004 A 
ENDBRANCH   8   9
ENDBRANCH   5   8
ENDBRANCH   1   5
BRANCH   2  15
ATOM     15  CA  TYR A   2       9.202 -11.092  32.718  0.00  0.00    +0.141 C 
BRANCH  15  16
ATOM     16  C   TYR A   2       9.801 -12.050  33.732  0.00  0.00    +0.227 C 
ATOM     17  O   TYR A   2      10.995 -11.975  34.017  0.00  0.00    -0.286 OA
ENDBRANCH  15  16
BRANCH  15  18
ATOM     18  CB  TYR A   2       8.837  -9.763  33.374  0.00  0.00    +0.054 C 
BRANCH  18  19
ATOM     19  CG  TYR A   2       8.920  -8.643  32.370  0.00  0.00    -0.020 A 
ATOM     20  CD2 TYR A   2       7.802  -7.890  32.032  0.00  0.00    -0.001 A 
ATOM     21  CE2 TYR A   2       7.875  -6.912  31.035  0.00  0.00    +0.036 A 
ATOM     22  CZ  TYR A   2       9.078  -6.694  30.382  0.00  0.00    +0.134 A 
ATOM     23  CE1 TYR A   2      10.197  -7.428  30.712  0.00  0.00    +0.036 A 
ATOM     24  CD1 TYR A   2      10.116  -8.392  31.699  0.00  0.00    -0.001 A 
BRANCH  22  25
ATOM     25  OH  TYR A   2       9.173  -5.753  29.384  0.00  0.00    -0.506 OA
ATOM     26  HH  TYR A   2       8.940  -4.863  29.748  0.00  0.00    +0.292 HD
ENDBRANCH  22  25
ENDBRANCH  18  19
ENDBRANCH  15  18
ENDBRANCH   2  15
TORSDOF 9
REMARK  Name = ../refined-set-2016/3lcv/3lcv_pocket.pdb
REMARK  235 active torsions:
REMARK  status: ('A' for Active; 'I' for Inactive)
REMARK    1  A    between atoms: _1  and  _3
REMARK    2  A    between atoms: _3  and  _4
REMARK    3  A    between atoms: _3  and  _6
REMARK    4  A    between atoms: _9  and  _11
REMARK    5  A    between atoms: _11  and  _12
REMARK    6  A    between atoms: _15  and  _17
REMARK    7  A    between atoms: _17  and  _18
REMARK    8  A    between atoms: _17  and  _20
REMARK    9  A    between atoms: _20  and  _21
REMARK   10  A    between atoms: _24  and  _26
REMARK   11  A    between atoms: _26  and  _27
REMARK   12  A    between atoms: _26  and  _29
REMARK   13  A    between atoms: _29  and  _30
REMARK   14  A    between atoms: _30  and  _31
REMARK   15  A    between atoms: _31  and  _32
REMARK   16  A    between atoms: _41  and  _43
REMARK   17  A    between atoms: _43  and  _44
REMARK   18  A    between atoms: _43  and  _46
REMARK   19  A    between atoms: _46  and  _47
REMARK   20  A    between atoms: _50  and  _52
REMARK   21  A    between atoms: _52  and  _53
REMARK   22  A    between atoms: _55  and  _57
REMARK   23  A    between atoms: _57  and  _58
REMARK   24  A    between atoms: _57  and  _60
REMARK   25  A    between atoms: _60  and  _61
REMARK   26  A    between atoms: _64  and  _66
REMARK   27  A    between atoms: _66  and  _67
REMARK   28  A    between atoms: _66  and  _69
REMARK   29  A    between atoms: _69  and  _70
REMARK   30  A    between atoms: _70  and  _71
REMARK   31  A    between atoms: _74  and  _76
REMARK   32  A    between atoms: _76  and  _77
REMARK   33  A    between atoms: _76  and  _79
REMARK   34  A    between atoms: _79  and  _80
REMARK   35  A    between atoms: _83  and  _85
REMARK   36  A    between atoms: _85  and  _86
REMARK   37  A    between atoms: _85  and  _88
REMARK   38  A    between atoms: _88  and  _89
REMARK   39  A    between atoms: _94  and  _95
REMARK   40  A    between atoms: _97  and  _99
REMARK   41  A    between atoms: _99  and  _100
REMARK   42  A    between atoms: _102  and  _104
REMARK   43  A    between atoms: _104  and  _105
REMARK   44  A    between atoms: _108  and  _110
REMARK   45  A    between atoms: _110  and  _111
REMARK   46  A    between atoms: _110  and  _113
REMARK   47  A    between atoms: _113  and  _114
REMARK   48  A    between atoms: _120  and  _122
REMARK   49  A    between atoms: _122  and  _123
REMARK   50  A    between atoms: _122  and  _125
REMARK   51  A    between atoms: _125  and  _126
REMARK   52  A    between atoms: _129  and  _131
REMARK   53  A    between atoms: _131  and  _132
REMARK   54  A    between atoms: _131  and  _134
REMARK   55  A    between atoms: _134  and  _135
REMARK   56  A    between atoms: _135  and  _136
REMARK   57  A    between atoms: _138  and  _140
REMARK   58  A    between atoms: _140  and  _141
REMARK   59  A    between atoms: _140  and  _143
REMARK   60  A    between atoms: _143  and  _144
REMARK   61  A    between atoms: _149  and  _151
REMARK   62  A    between atoms: _151  and  _152
REMARK   63  A    between atoms: _151  and  _154
REMARK   64  A    between atoms: _154  and  _155
REMARK   65  A    between atoms: _158  and  _160
REMARK   66  A    between atoms: _160  and  _161
REMARK   67  A    between atoms: _160  and  _163
REMARK   68  A    between atoms: _163  and  _164
REMARK   69  A    between atoms: _166  and  _168
REMARK   70  A    between atoms: _168  and  _169
REMARK   71  A    between atoms: _168  and  _171
REMARK   72  A    between atoms: _171  and  _172
REMARK   73  A    between atoms: _175  and  _177
REMARK   74  A    between atoms: _177  and  _178
REMARK   75  A    between atoms: _177  and  _180
REMARK   76  A    between atoms: _180  and  _181
REMARK   77  A    between atoms: _181  and  _182
REMARK   78  A    between atoms: _182  and  _183
REMARK   79  A    between atoms: _192  and  _194
REMARK   80  A    between atoms: _194  and  _195
REMARK   81  A    between atoms: _194  and  _197
REMARK   82  A    between atoms: _197  and  _198
REMARK   83  A    between atoms: _198  and  _199
REMARK   84  A    between atoms: _202  and  _204
REMARK   85  A    between atoms: _204  and  _205
REMARK   86  A    between atoms: _204  and  _207
REMARK   87  A    between atoms: _207  and  _208
REMARK   88  A    between atoms: _208  and  _209
REMARK   89  A    between atoms: _209  and  _210
REMARK   90  A    between atoms: _219  and  _221
REMARK   91  A    between atoms: _221  and  _222
REMARK   92  A    between atoms: _221  and  _224
REMARK   93  A    between atoms: _224  and  _225
REMARK   94  A    between atoms: _228  and  _230
REMARK   95  A    between atoms: _230  and  _231
REMARK   96  A    between atoms: _230  and  _233
REMARK   97  A    between atoms: _233  and  _234
REMARK   98  A    between atoms: _240  and  _242
REMARK   99  A    between atoms: _242  and  _243
REMARK  100  A    between atoms: _242  and  _245
REMARK  101  A    between atoms: _245  and  _246
REMARK  102  A    between atoms: _251  and  _252
REMARK  103  A    between atoms: _254  and  _256
REMARK  104  A    between atoms: _256  and  _257
REMARK  105  A    between atoms: _256  and  _259
REMARK  106  A    between atoms: _259  and  _260
REMARK  107  A    between atoms: _263  and  _265
REMARK  108  A    between atoms: _265  and  _266
REMARK  109  A    between atoms: _265  and  _268
REMARK  110  A    between atoms: _268  and  _269
REMARK  111  A    between atoms: _272  and  _274
REMARK  112  A    between atoms: _274  and  _275
REMARK  113  A    between atoms: _278  and  _280
REMARK  114  A    between atoms: _280  and  _281
REMARK  115  A    between atoms: _280  and  _283
REMARK  116  A    between atoms: _285  and  _287
REMARK  117  A    between atoms: _287  and  _288
REMARK  118  A    between atoms: _290  and  _292
REMARK  119  A    between atoms: _292  and  _293
REMARK  120  A    between atoms: _292  and  _295
REMARK  121  A    between atoms: _295  and  _296
REMARK  122  A    between atoms: _299  and  _301
REMARK  123  A    between atoms: _301  and  _302
REMARK  124  A    between atoms: _301  and  _304
REMARK  125  A    between atoms: _304  and  _305
REMARK  126  A    between atoms: _311  and  _312
REMARK  127  A    between atoms: _317  and  _319
REMARK  128  A    between atoms: _319  and  _320
REMARK  129  A    between atoms: _319  and  _322
REMARK  130  A    between atoms: _322  and  _323
REMARK  131  A    between atoms: _326  and  _328
REMARK  132  A    between atoms: _328  and  _329
REMARK  133  A    between atoms: _328  and  _331
REMARK  134  A    between atoms: _331  and  _332
REMARK  135  A    between atoms: _337  and  _338
REMARK  136  A    between atoms: _340  and  _342
REMARK  137  A    between atoms: _342  and  _343
REMARK  138  A    between atoms: _342  and  _345
REMARK  139  A    between atoms: _345  and  _346
REMARK  140  A    between atoms: _348  and  _350
REMARK  141  A    between atoms: _350  and  _351
REMARK  142  A    between atoms: _350  and  _353
REMARK  143  A    between atoms: _353  and  _354
REMARK  144  A    between atoms: _357  and  _359
REMARK  145  A    between atoms: _359  and  _360
REMARK  146  A    between atoms: _359  and  _362
REMARK  147  A    between atoms: _362  and  _363
REMARK  148  A    between atoms: _366  and  _368
REMARK  149  A    between atoms: _368  and  _369
REMARK  150  A    between atoms: _368  and  _371
REMARK  151  A    between atoms: _371  and  _372
REMARK  152  A    between atoms: _375  and  _377
REMARK  153  A    between atoms: _377  and  _378
REMARK  154  A    between atoms: _377  and  _380
REMARK  155  A    between atoms: _380  and  _381
REMARK  156  A    between atoms: _384  and  _386
REMARK  157  A    between atoms: _386  and  _387
REMARK  158  A    between atoms: _386  and  _389
REMARK  159  A    between atoms: _392  and  _394
REMARK  160  A    between atoms: _394  and  _395
REMARK  161  A    between atoms: _398  and  _400
REMARK  162  A    between atoms: _400  and  _401
REMARK  163  A    between atoms: _400  and  _403
REMARK  164  A    between atoms: _403  and  _404
REMARK  165  A    between atoms: _407  and  _409
REMARK  166  A    between atoms: _409  and  _410
REMARK  167  A    between atoms: _409  and  _412
REMARK  168  A    between atoms: _412  and  _413
REMARK  169  A    between atoms: _416  and  _418
REMARK  170  A    between atoms: _418  and  _419
REMARK  171  A    between atoms: _418  and  _421
REMARK  172  A    between atoms: _421  and  _422
REMARK  173  A    between atoms: _425  and  _427
REMARK  174  A    between atoms: _427  and  _428
REMARK  175  A    between atoms: _427  and  _430
REMARK  176  A    between atoms: _430  and  _431
REMARK  177  A    between atoms: _431  and  _432
REMARK  178  A    between atoms: _435  and  _437
REMARK  179  A    between atoms: _437  and  _438
REMARK  180  A    between atoms: _437  and  _440
REMARK  181  A    between atoms: _440  and  _441
REMARK  182  A    between atoms: _444  and  _446
REMARK  183  A    between atoms: _446  and  _447
REMARK  184  A    between atoms: _446  and  _449
REMARK  185  A    between atoms: _449  and  _450
REMARK  186  A    between atoms: _453  and  _455
REMARK  187  A    between atoms: _455  and  _456
REMARK  188  A    between atoms: _455  and  _458
REMARK  189  A    between atoms: _458  and  _459
REMARK  190  A    between atoms: _462  and  _464
REMARK  191  A    between atoms: _464  and  _465
REMARK  192  A    between atoms: _464  and  _467
REMARK  193  A    between atoms: _467  and  _468
REMARK  194  A    between atoms: _471  and  _473
REMARK  195  A    between atoms: _473  and  _474
REMARK  196  A    between atoms: _473  and  _476
REMARK  197  A    between atoms: _476  and  _477
REMARK  198  A    between atoms: _477  and  _478
REMARK  199  A    between atoms: _478  and  _479
REMARK  200  A    between atoms: _479  and  _480
REMARK  201  A    between atoms: _484  and  _486
REMARK  202  A    between atoms: _486  and  _487
REMARK  203  A    between atoms: _486  and  _489
REMARK  204  A    between atoms: _489  and  _490
REMARK  205  A    between atoms: _493  and  _495
REMARK  206  A    between atoms: _495  and  _496
REMARK  207  A    between atoms: _495  and  _498
REMARK  208  A    between atoms: _498  and  _499
REMARK  209  A    between atoms: _503  and  _504
REMARK  210  A    between atoms: _509  and  _511
REMARK  211  A    between atoms: _511  and  _512
REMARK  212  A    between atoms: _511  and  _514
REMARK  213  A    between atoms: _516  and  _518
REMARK  214  A    between atoms: _518  and  _519
REMARK  215  A    between atoms: _518  and  _521
REMARK  216  A    between atoms: _521  and  _522
REMARK  217  A    between atoms: _525  and  _527
REMARK  218  A    between atoms: _527  and  _528
REMARK  219  A    between atoms: _527  and  _530
REMARK  220  A    between atoms: _530  and  _531
REMARK  221  A    between atoms: _531  and  _532
REMARK  222  A    between atoms: _537  and  _539
REMARK  223  A    between atoms: _539  and  _540
REMARK  224  A    between atoms: _539  and  _542
REMARK  225  A    between atoms: _542  and  _543
REMARK  226  A    between atoms: _545  and  _547
REMARK  227  A    between atoms: _547  and  _548
REMARK  228  A    between atoms: _547  and  _550
REMARK  229  A    between atoms: _550  and  _551
REMARK  230  A    between atoms: _555  and  _556
REMARK  231  A    between atoms: _561  and  _563
REMARK  232  A    between atoms: _563  and  _564
REMARK  233  A    between atoms: _563  and  _566
REMARK  234  A    between atoms: _566  and  _567
REMARK  235  A    between atoms: _567  and  _568
REMARK                            x       y       z     vdW  Elec       q    Type
REMARK                         _______ _______ _______ _____ _____    ______ ____
ROOT
ATOM      1  C   GLY A   5       5.958   2.479  25.644  0.00  0.00    +0.243 C 
ATOM      2  O   GLY A   5       6.544   3.261  26.374  0.00  0.00    -0.273 OA
ATOM      3  N   LEU A   6       4.960   1.730  26.094  0.00  0.00    -0.297 N 
ATOM      4  H   LEU A   6       4.478   1.061  25.460  0.00  0.00    +0.150 HD
ENDROOT
BRANCH   3   5
ATOM      5  CA  LEU A   6       4.544   1.855  27.491  0.00  0.00    +0.149 C 
BRANCH   5   6
ATOM      6  C   LEU A   6       5.065   0.734  28.382  0.00  0.00    +0.241 C 
ATOM      7  O   LEU A   6       4.631   0.597  29.534  0.00  0.00    -0.273 OA
ATOM      8  N   ASN A   7       6.017  -0.042  27.857  0.00  0.00    -0.297 N 
ATOM      9  H   ASN A   7       6.346   0.164  26.892  0.00  0.00    +0.150 HD
BRANCH   8  10
ATOM     10  CA  ASN A   7       6.621  -1.170  28.573  0.00  0.00    +0.158 C 
BRANCH  10  11
ATOM     11  C   ASN A   7       7.260  -0.848  29.935  0.00  0.00    +0.244 C 
ATOM     12  O   ASN A   7       7.222  -1.674  30.848  0.00  0.00    -0.273 OA
ATOM     13  N   PRO A   8       7.865   0.339  30.089  0.00  0.00    -0.272 N 
ATOM     14  CA  PRO A   8       8.475   0.652  31.388  0.00  0.00    +0.152 C 
ATOM     15  CB  PRO A   8       9.040   2.053  31.173  0.00  0.00    +0.031 C 
ATOM     16  CG  PRO A   8       9.417   2.031  29.720  0.00  0.00    +0.024 C 
ATOM     17  CD  PRO A   8       8.185   1.386  29.104  0.00  0.00    +0.094 C 
BRANCH  14  18
ATOM     18  C   PRO A   8       7.475   0.594  32.540  0.00  0.00    +0.241 C 
ATOM     19  O   PRO A   8       7.865   0.427  33.703  0.00  0.00    -0.273 OA
ATOM     20  N   LEU A   9       6.189   0.744  32.223  0.00  0.00    -0.298 N 
ATOM     21  H   LEU A   9       5.917   0.911  31.233  0.00  0.00    +0.150 HD
BRANCH  20  22
ATOM     22  CA  LEU A   9       5.162   0.675  33.254  0.00  0.00    +0.137 C 
BRANCH  22  23
ATOM     23  C   LEU A   9       5.101  -0.736  33.839  0.00  0.00    +0.227 C 
ATOM     24  O   LEU A   9       4.535  -0.953  34.913  0.00  0.00    -0.286 OA
ENDBRANCH  22  23
BRANCH  22  25
ATOM     25  CB  LEU A   9       3.804   1.114  32.709  0.00  0.00    +0.028 C 
BRANCH  25  26
ATOM     26  CG  LEU A   9       3.599   2.621  32.915  0.00  0.00    +0.002 C 
ATOM     27  CD2 LEU A   9       2.184   2.985  32.572  0.00  0.00    +0.000 C 
ATOM     28  CD1 LEU A   9       4.583   3.412  32.075  0.00  0.00    +0.000 C 
ENDBRANCH  25  26
ENDBRANCH  22  25
ENDBRANCH  20  22
ENDBRANCH  14  18
ENDBRANCH  10  11
BRANCH  10  29
ATOM     29  CB  ASN A   7       7.658  -1.852  27.675  0.00  0.00    +0.114 C 
BRANCH  29  30
ATOM     30  CG  ASN A   7       8.271  -3.080  28.314  0.00  0.00    +0.222 C 
ATOM     31  ND2 ASN A   7       7.438  -4.064  28.630  0.00  0.00    -0.329 N 
ATOM     32 HD21 ASN A   7       7.802  -4.932  29.072  0.00  0.00    +0.145 HD
ATOM     33 HD22 ASN A   7       6.421  -3.967  28.435  0.00  0.00    +0.145 HD
ATOM     34  OD1 ASN A   7       9.483  -3.144  28.523  0.00  0.00    -0.275 OA
ENDBRANCH  29  30
ENDBRANCH  10  29
ENDBRANCH   8  10
ENDBRANCH   5   6
BRANCH   5  35
ATOM     35  CB  LEU A   6       3.016   1.943  27.583  0.00  0.00    +0.029 C 
BRANCH  35  36
ATOM     36  CG  LEU A   6       2.453   3.275  27.085  0.00  0.00    +0.002 C 
ATOM     37  CD2 LEU A   6       3.140   4.424  27.836  0.00  0.00    +0.000 C 
ATOM     38  CD1 LEU A   6       0.954   3.335  27.308  0.00  0.00    +0.000 C 
ENDBRANCH  35  36
ENDBRANCH   5  35
ENDBRANCH   3   5
BRANCH   1  39
ATOM     39  CA  GLY A   5       6.381   2.334  24.183  0.00  0.00    +0.176 C 
BRANCH  39  42
ATOM     40  C   CYS A   4       8.514   1.453  24.796  0.00  0.00    +0.242 C 
ATOM     41  O   CYS A   4       7.952   0.547  25.406  0.00  0.00    -0.273 OA
ATOM     42  N   GLY A   5       7.831   2.383  24.140  0.00  0.00    -0.295 N 
ATOM     43  H   GLY A   5       8.323   3.129  23.608  0.00  0.00    +0.150 HD
BRANCH  40  44
ATOM     44  CA  CYS A   4      10.037   1.526  24.794  0.00  0.00    +0.160 C 
BRANCH  44  46
ATOM     45  C   ALA A   3      10.622   1.616  22.407  0.00  0.00    +0.241 C 
ATOM     46  N   CYS A   4      10.777   2.056  23.654  0.00  0.00    -0.296 N 
ATOM     47  H   CYS A   4      11.463   2.819  23.825  0.00  0.00    +0.150 HD
ATOM     48  O   ALA A   3       9.762   0.793  22.072  0.00  0.00    -0.273 OA
BRANCH  45  49
ATOM     49  CA  ALA A   3      11.585   2.224  21.390  0.00  0.00    +0.149 C 
ATOM     50  CB  ALA A   3      11.666   1.346  20.134  0.00  0.00    +0.031 C 
BRANCH  49  53
ATOM     51  C   LEU A   2      13.341   1.185  22.738  0.00  0.00    +0.241 C 
ATOM     52  O   LEU A   2      12.738   0.111  22.763  0.00  0.00    -0.273 OA
ATOM     53  N   ALA A   3      12.883   2.249  22.075  0.00  0.00    -0.297 N 
ATOM     54  H   ALA A   3      13.458   3.115  22.043  0.00  0.00    +0.150 HD
BRANCH  51  55
ATOM     55  CA  LEU A   2      14.687   1.335  23.465  0.00  0.00    +0.149 C 
BRANCH  55  58
ATOM     56  C   ASP A   1      14.375   0.977  25.861  0.00  0.00    +0.239 C 
ATOM     57  O   ASP A   1      13.940   2.118  26.019  0.00  0.00    -0.274 OA
ATOM     58  N   LEU A   2      14.754   0.513  24.677  0.00  0.00    -0.297 N 
ATOM     59  H   LEU A   2      15.109  -0.462  24.607  0.00  0.00    +0.150 HD
BRANCH  56  60
ATOM     60  CA  ASP A   1      14.506   0.017  27.049  0.00  0.00    +0.156 C 
BRANCH  60  61
ATOM     61  N   ASP A   1      15.691   0.410  27.816  0.00  0.00    -0.238 NA
ATOM     62  H   ASP A   1      15.714   1.366  28.224  0.00  0.00    +0.142 HD
ENDBRANCH  60  61
BRANCH  60  63
ATOM     63  CB  ASP A   1      13.259   0.133  27.947  0.00  0.00    +0.140 C 
BRANCH  63  64
ATOM     64  CG  ASP A   1      12.058  -0.640  27.415  0.00  0.00    +0.367 C 
ATOM     65  OD2 ASP A   1      11.071  -0.791  28.173  0.00  0.00    -0.246 OA
ATOM     66  OD1 ASP A   1      12.082  -1.089  26.249  0.00  0.00    -0.246 OA
ENDBRANCH  63  64
ENDBRANCH  60  63
ENDBRANCH  56  60
ENDBRANCH  55  58
BRANCH  55  67
ATOM     67  CB  LEU A   2      15.848   0.962  22.543  0.00  0.00    +0.029 C 
BRANCH  67  68
ATOM     68  CG  LEU A   2      17.228   1.009  23.208  0.00  0.00    +0.002 C 
ATOM     69  CD2 LEU A   2      17.525   2.425  23.679  0.00  0.00    +0.000 C 
ATOM     70  CD1 LEU A   2      18.296   0.534  22.225  0.00  0.00    +0.000 C 
ENDBRANCH  67  68
ENDBRANCH  55  67
ENDBRANCH  51  55
ENDBRANCH  49  53
ENDBRANCH  45  49
ENDBRANCH  44  46
BRANCH  44  71
ATOM     71  CB  CYS A   4      10.496   2.251  26.078  0.00  0.00    +0.098 C 
ATOM     72  SG  CYS A   4       9.831   3.930  26.283  0.00  0.00    -0.080 S 
ENDBRANCH  44  71
ENDBRANCH  40  44
ENDBRANCH  39  42
ENDBRANCH   1  39
TORSDOF 28
REMARK  Name = ../refined-set-2016/3lcv/3lcv_pocket.pdb
REMARK  235 active torsions:
REMARK  status: ('A' for Active; 'I' for Inactive)
REMARK    1  A    between atoms: _1  and  _3
REMARK    2  A    between atoms: _3  and  _4
REMARK    3  A    between atoms: _3  and  _6
REMARK    4  A    between atoms: _9  and  _11
REMARK    5  A    between atoms: _11  and  _12
REMARK    6  A    between atoms: _15  and  _17
REMARK    7  A    between atoms: _17  and  _18
REMARK    8  A    between atoms: _17  and  _20
REMARK    9  A    between atoms: _20  and  _21
REMARK   10  A    between atoms: _24  and  _26
REMARK   11  A    between atoms: _26  and  _27
REMARK   12  A    between atoms: _26  and  _29
REMARK   13  A    between atoms: _29  and  _30
REMARK   14  A    between atoms: _30  and  _31
REMARK   15  A    between atoms: _31  and  _32
REMARK   16  A    between atoms: _41  and  _43
REMARK   17  A    between atoms: _43  and  _44
REMARK   18  A    between atoms: _43  and  _46
REMARK   19  A    between atoms: _46  and  _47
REMARK   20  A    between atoms: _50  and  _52
REMARK   21  A    between atoms: _52  and  _53
REMARK   22  A    between atoms: _55  and  _57
REMARK   23  A    between atoms: _57  and  _58
REMARK   24  A    between atoms: _57  and  _60
REMARK   25  A    between atoms: _60  and  _61
REMARK   26  A    between atoms: _64  and  _66
REMARK   27  A    between atoms: _66  and  _67
REMARK   28  A    between atoms: _66  and  _69
REMARK   29  A    between atoms: _69  and  _70
REMARK   30  A    between atoms: _70  and  _71
REMARK   31  A    between atoms: _74  and  _76
REMARK   32  A    between atoms: _76  and  _77
REMARK   33  A    between atoms: _76  and  _79
REMARK   34  A    between atoms: _79  and  _80
REMARK   35  A    between atoms: _83  and  _85
REMARK   36  A    between atoms: _85  and  _86
REMARK   37  A    between atoms: _85  and  _88
REMARK   38  A    between atoms: _88  and  _89
REMARK   39  A    between atoms: _94  and  _95
REMARK   40  A    between atoms: _97  and  _99
REMARK   41  A    between atoms: _99  and  _100
REMARK   42  A    between atoms: _102  and  _104
REMARK   43  A    between atoms: _104  and  _105
REMARK   44  A    between atoms: _108  and  _110
REMARK   45  A    between atoms: _110  and  _111
REMARK   46  A    between atoms: _110  and  _113
REMARK   47  A    between atoms: _113  and  _114
REMARK   48  A    between atoms: _120  and  _122
REMARK   49  A    between atoms: _122  and  _123
REMARK   50  A    between atoms: _122  and  _125
REMARK   51  A    between atoms: _125  and  _126
REMARK   52  A    between atoms: _129  and  _131
REMARK   53  A    between atoms: _131  and  _132
REMARK   54  A    between atoms: _131  and  _134
REMARK   55  A    between atoms: _134  and  _135
REMARK   56  A    between atoms: _135  and  _136
REMARK   57  A    between atoms: _138  and  _140
REMARK   58  A    between atoms: _140  and  _141
REMARK   59  A    between atoms: _140  and  _143
REMARK   60  A    between atoms: _143  and  _144
REMARK   61  A    between atoms: _149  and  _151
REMARK   62  A    between atoms: _151  and  _152
REMARK   63  A    between atoms: _151  and  _154
REMARK   64  A    between atoms: _154  and  _155
REMARK   65  A    between atoms: _158  and  _160
REMARK   66  A    between atoms: _160  and  _161
REMARK   67  A    between atoms: _160  and  _163
REMARK   68  A    between atoms: _163  and  _164
REMARK   69  A    between atoms: _166  and  _168
REMARK   70  A    between atoms: _168  and  _169
REMARK   71  A    between atoms: _168  and  _171
REMARK   72  A    between atoms: _171  and  _172
REMARK   73  A    between atoms: _175  and  _177
REMARK   74  A    between atoms: _177  and  _178
REMARK   75  A    between atoms: _177  and  _180
REMARK   76  A    between atoms: _180  and  _181
REMARK   77  A    between atoms: _181  and  _182
REMARK   78  A    between atoms: _182  and  _183
REMARK   79  A    between atoms: _192  and  _194
REMARK   80  A    between atoms: _194  and  _195
REMARK   81  A    between atoms: _194  and  _197
REMARK   82  A    between atoms: _197  and  _198
REMARK   83  A    between atoms: _198  and  _199
REMARK   84  A    between atoms: _202  and  _204
REMARK   85  A    between atoms: _204  and  _205
REMARK   86  A    between atoms: _204  and  _207
REMARK   87  A    between atoms: _207  and  _208
REMARK   88  A    between atoms: _208  and  _209
REMARK   89  A    between atoms: _209  and  _210
REMARK   90  A    between atoms: _219  and  _221
REMARK   91  A    between atoms: _221  and  _222
REMARK   92  A    between atoms: _221  and  _224
REMARK   93  A    between atoms: _224  and  _225
REMARK   94  A    between atoms: _228  and  _230
REMARK   95  A    between atoms: _230  and  _231
REMARK   96  A    between atoms: _230  and  _233
REMARK   97  A    between atoms: _233  and  _234
REMARK   98  A    between atoms: _240  and  _242
REMARK   99  A    between atoms: _242  and  _243
REMARK  100  A    between atoms: _242  and  _245
REMARK  101  A    between atoms: _245  and  _246
REMARK  102  A    between atoms: _251  and  _252
REMARK  103  A    between atoms: _254  and  _256
REMARK  104  A    between atoms: _256  and  _257
REMARK  105  A    between atoms: _256  and  _259
REMARK  106  A    between atoms: _259  and  _260
REMARK  107  A    between atoms: _263  and  _265
REMARK  108  A    between atoms: _265  and  _266
REMARK  109  A    between atoms: _265  and  _268
REMARK  110  A    between atoms: _268  and  _269
REMARK  111  A    between atoms: _272  and  _274
REMARK  112  A    between atoms: _274  and  _275
REMARK  113  A    between atoms: _278  and  _280
REMARK  114  A    between atoms: _280  and  _281
REMARK  115  A    between atoms: _280  and  _283
REMARK  116  A    between atoms: _285  and  _287
REMARK  117  A    between atoms: _287  and  _288
REMARK  118  A    between atoms: _290  and  _292
REMARK  119  A    between atoms: _292  and  _293
REMARK  120  A    between atoms: _292  and  _295
REMARK  121  A    between atoms: _295  and  _296
REMARK  122  A    between atoms: _299  and  _301
REMARK  123  A    between atoms: _301  and  _302
REMARK  124  A    between atoms: _301  and  _304
REMARK  125  A    between atoms: _304  and  _305
REMARK  126  A    between atoms: _311  and  _312
REMARK  127  A    between atoms: _317  and  _319
REMARK  128  A    between atoms: _319  and  _320
REMARK  129  A    between atoms: _319  and  _322
REMARK  130  A    between atoms: _322  and  _323
REMARK  131  A    between atoms: _326  and  _328
REMARK  132  A    between atoms: _328  and  _329
REMARK  133  A    between atoms: _328  and  _331
REMARK  134  A    between atoms: _331  and  _332
REMARK  135  A    between atoms: _337  and  _338
REMARK  136  A    between atoms: _340  and  _342
REMARK  137  A    between atoms: _342  and  _343
REMARK  138  A    between atoms: _342  and  _345
REMARK  139  A    between atoms: _345  and  _346
REMARK  140  A    between atoms: _348  and  _350
REMARK  141  A    between atoms: _350  and  _351
REMARK  142  A    between atoms: _350  and  _353
REMARK  143  A    between atoms: _353  and  _354
REMARK  144  A    between atoms: _357  and  _359
REMARK  145  A    between atoms: _359  and  _360
REMARK  146  A    between atoms: _359  and  _362
REMARK  147  A    between atoms: _362  and  _363
REMARK  148  A    between atoms: _366  and  _368
REMARK  149  A    between atoms: _368  and  _369
REMARK  150  A    between atoms: _368  and  _371
REMARK  151  A    between atoms: _371  and  _372
REMARK  152  A    between atoms: _375  and  _377
REMARK  153  A    between atoms: _377  and  _378
REMARK  154  A    between atoms: _377  and  _380
REMARK  155  A    between atoms: _380  and  _381
REMARK  156  A    between atoms: _384  and  _386
REMARK  157  A    between atoms: _386  and  _387
REMARK  158  A    between atoms: _386  and  _389
REMARK  159  A    between atoms: _392  and  _394
REMARK  160  A    between atoms: _394  and  _395
REMARK  161  A    between atoms: _398  and  _400
REMARK  162  A    between atoms: _400  and  _401
REMARK  163  A    between atoms: _400  and  _403
REMARK  164  A    between atoms: _403  and  _404
REMARK  165  A    between atoms: _407  and  _409
REMARK  166  A    between atoms: _409  and  _410
REMARK  167  A    between atoms: _409  and  _412
REMARK  168  A    between atoms: _412  and  _413
REMARK  169  A    between atoms: _416  and  _418
REMARK  170  A    between atoms: _418  and  _419
REMARK  171  A    between atoms: _418  and  _421
REMARK  172  A    between atoms: _421  and  _422
REMARK  173  A    between atoms: _425  and  _427
REMARK  174  A    between atoms: _427  and  _428
REMARK  175  A    between atoms: _427  and  _430
REMARK  176  A    between atoms: _430  and  _431
REMARK  177  A    between atoms: _431  and  _432
REMARK  178  A    between atoms: _435  and  _437
REMARK  179  A    between atoms: _437  and  _438
REMARK  180  A    between atoms: _437  and  _440
REMARK  181  A    between atoms: _440  and  _441
REMARK  182  A    between atoms: _444  and  _446
REMARK  183  A    between atoms: _446  and  _447
REMARK  184  A    between atoms: _446  and  _449
REMARK  185  A    between atoms: _449  and  _450
REMARK  186  A    between atoms: _453  and  _455
REMARK  187  A    between atoms: _455  and  _456
REMARK  188  A    between atoms: _455  and  _458
REMARK  189  A    between atoms: _458  and  _459
REMARK  190  A    between atoms: _462  and  _464
REMARK  191  A    between atoms: _464  and  _465
REMARK  192  A    between atoms: _464  and  _467
REMARK  193  A    between atoms: _467  and  _468
REMARK  194  A    between atoms: _471  and  _473
REMARK  195  A    between atoms: _473  and  _474
REMARK  196  A    between atoms: _473  and  _476
REMARK  197  A    between atoms: _476  and  _477
REMARK  198  A    between atoms: _477  and  _478
REMARK  199  A    between atoms: _478  and  _479
REMARK  200  A    between atoms: _479  and  _480
REMARK  201  A    between atoms: _484  and  _486
REMARK  202  A    between atoms: _486  and  _487
REMARK  203  A    between atoms: _486  and  _489
REMARK  204  A    between atoms: _489  and  _490
REMARK  205  A    between atoms: _493  and  _495
REMARK  206  A    between atoms: _495  and  _496
REMARK  207  A    between atoms: _495  and  _498
REMARK  208  A    between atoms: _498  and  _499
REMARK  209  A    between atoms: _503  and  _504
REMARK  210  A    between atoms: _509  and  _511
REMARK  211  A    between atoms: _511  and  _512
REMARK  212  A    between atoms: _511  and  _514
REMARK  213  A    between atoms: _516  and  _518
REMARK  214  A    between atoms: _518  and  _519
REMARK  215  A    between atoms: _518  and  _521
REMARK  216  A    between atoms: _521  and  _522
REMARK  217  A    between atoms: _525  and  _527
REMARK  218  A    between atoms: _527  and  _528
REMARK  219  A    between atoms: _527  and  _530
REMARK  220  A    between atoms: _530  and  _531
REMARK  221  A    between atoms: _531  and  _532
REMARK  222  A    between atoms: _537  and  _539
REMARK  223  A    between atoms: _539  and  _540
REMARK  224  A    between atoms: _539  and  _542
REMARK  225  A    between atoms: _542  and  _543
REMARK  226  A    between atoms: _545  and  _547
REMARK  227  A    between atoms: _547  and  _548
REMARK  228  A    between atoms: _547  and  _550
REMARK  229  A    between atoms: _550  and  _551
REMARK  230  A    between atoms: _555  and  _556
REMARK  231  A    between atoms: _561  and  _563
REMARK  232  A    between atoms: _563  and  _564
REMARK  233  A    between atoms: _563  and  _566
REMARK  234  A    between atoms: _566  and  _567
REMARK  235  A    between atoms: _567  and  _568
REMARK                            x       y       z     vdW  Elec       q    Type
REMARK                         _______ _______ _______ _____ _____    ______ ____
ROOT
ATOM      1  CG  TYR A   1      13.495   1.280  33.523  0.00  0.00    -0.020 A 
ATOM      2  CD2 TYR A   1      12.942   0.059  33.903  0.00  0.00    -0.001 A 
ATOM      3  CE2 TYR A   1      12.221  -0.719  33.003  0.00  0.00    +0.036 A 
ATOM      4  CZ  TYR A   1      12.049  -0.278  31.704  0.00  0.00    +0.134 A 
ATOM      5  CE1 TYR A   1      12.586   0.927  31.302  0.00  0.00    +0.036 A 
ATOM      6  CD1 TYR A   1      13.306   1.705  32.213  0.00  0.00    -0.001 A 
ENDROOT
BRANCH   4   7
ATOM      7  OH  TYR A   1      11.346  -1.062  30.816  0.00  0.00    -0.506 OA
ATOM      8  HH  TYR A   1      11.933  -1.308  30.058  0.00  0.00    +0.292 HD
ENDBRANCH   4   7
BRANCH   1   9
ATOM      9  CB  TYR A   1      14.282   2.110  34.509  0.00  0.00    +0.051 C 
BRANCH   9  10
ATOM     10  CA  TYR A   1      15.775   2.245  34.198  0.00  0.00    +0.137 C 
BRANCH  10  11
ATOM     11  N   TYR A   1      16.500   2.555  35.425  0.00  0.00    -0.239 NA
ATOM     12  H   TYR A   1      16.027   3.120  36.159  0.00  0.00    +0.142 HD
ENDBRANCH  10  11
BRANCH  10  13
ATOM     13  C   TYR A   1      15.982   3.375  33.199  0.00  0.00    +0.224 C 
ATOM     14  O   TYR A   1      15.594   4.510  33.461  0.00  0.00    -0.287 OA
ENDBRANCH  10  13
ENDBRANCH   9  10
ENDBRANCH   1   9
TORSDOF 5
REMARK  Name = ../refined-set-2016/3lcv/3lcv_pocket.pdb
REMARK  235 active torsions:
REMARK  status: ('A' for Active; 'I' for Inactive)
REMARK    1  A    between atoms: _1  and  _3
REMARK    2  A    between atoms: _3  and  _4
REMARK    3  A    between atoms: _3  and  _6
REMARK    4  A    between atoms: _9  and  _11
REMARK    5  A    between atoms: _11  and  _12
REMARK    6  A    between atoms: _15  and  _17
REMARK    7  A    between atoms: _17  and  _18
REMARK    8  A    between atoms: _17  and  _20
REMARK    9  A    between atoms: _20  and  _21
REMARK   10  A    between atoms: _24  and  _26
REMARK   11  A    between atoms: _26  and  _27
REMARK   12  A    between atoms: _26  and  _29
REMARK   13  A    between atoms: _29  and  _30
REMARK   14  A    between atoms: _30  and  _31
REMARK   15  A    between atoms: _31  and  _32
REMARK   16  A    between atoms: _41  and  _43
REMARK   17  A    between atoms: _43  and  _44
REMARK   18  A    between atoms: _43  and  _46
REMARK   19  A    between atoms: _46  and  _47
REMARK   20  A    between atoms: _50  and  _52
REMARK   21  A    between atoms: _52  and  _53
REMARK   22  A    between atoms: _55  and  _57
REMARK   23  A    between atoms: _57  and  _58
REMARK   24  A    between atoms: _57  and  _60
REMARK   25  A    between atoms: _60  and  _61
REMARK   26  A    between atoms: _64  and  _66
REMARK   27  A    between atoms: _66  and  _67
REMARK   28  A    between atoms: _66  and  _69
REMARK   29  A    between atoms: _69  and  _70
REMARK   30  A    between atoms: _70  and  _71
REMARK   31  A    between atoms: _74  and  _76
REMARK   32  A    between atoms: _76  and  _77
REMARK   33  A    between atoms: _76  and  _79
REMARK   34  A    between atoms: _79  and  _80
REMARK   35  A    between atoms: _83  and  _85
REMARK   36  A    between atoms: _85  and  _86
REMARK   37  A    between atoms: _85  and  _88
REMARK   38  A    between atoms: _88  and  _89
REMARK   39  A    between atoms: _94  and  _95
REMARK   40  A    between atoms: _97  and  _99
REMARK   41  A    between atoms: _99  and  _100
REMARK   42  A    between atoms: _102  and  _104
REMARK   43  A    between atoms: _104  and  _105
REMARK   44  A    between atoms: _108  and  _110
REMARK   45  A    between atoms: _110  and  _111
REMARK   46  A    between atoms: _110  and  _113
REMARK   47  A    between atoms: _113  and  _114
REMARK   48  A    between atoms: _120  and  _122
REMARK   49  A    between atoms: _122  and  _123
REMARK   50  A    between atoms: _122  and  _125
REMARK   51  A    between atoms: _125  and  _126
REMARK   52  A    between atoms: _129  and  _131
REMARK   53  A    between atoms: _131  and  _132
REMARK   54  A    between atoms: _131  and  _134
REMARK   55  A    between atoms: _134  and  _135
REMARK   56  A    between atoms: _135  and  _136
REMARK   57  A    between atoms: _138  and  _140
REMARK   58  A    between atoms: _140  and  _141
REMARK   59  A    between atoms: _140  and  _143
REMARK   60  A    between atoms: _143  and  _144
REMARK   61  A    between atoms: _149  and  _151
REMARK   62  A    between atoms: _151  and  _152
REMARK   63  A    between atoms: _151  and  _154
REMARK   64  A    between atoms: _154  and  _155
REMARK   65  A    between atoms: _158  and  _160
REMARK   66  A    between atoms: _160  and  _161
REMARK   67  A    between atoms: _160  and  _163
REMARK   68  A    between atoms: _163  and  _164
REMARK   69  A    between atoms: _166  and  _168
REMARK   70  A    between atoms: _168  and  _169
REMARK   71  A    between atoms: _168  and  _171
REMARK   72  A    between atoms: _171  and  _172
REMARK   73  A    between atoms: _175  and  _177
REMARK   74  A    between atoms: _177  and  _178
REMARK   75  A    between atoms: _177  and  _180
REMARK   76  A    between atoms: _180  and  _181
REMARK   77  A    between atoms: _181  and  _182
REMARK   78  A    between atoms: _182  and  _183
REMARK   79  A    between atoms: _192  and  _194
REMARK   80  A    between atoms: _194  and  _195
REMARK   81  A    between atoms: _194  and  _197
REMARK   82  A    between atoms: _197  and  _198
REMARK   83  A    between atoms: _198  and  _199
REMARK   84  A    between atoms: _202  and  _204
REMARK   85  A    between atoms: _204  and  _205
REMARK   86  A    between atoms: _204  and  _207
REMARK   87  A    between atoms: _207  and  _208
REMARK   88  A    between atoms: _208  and  _209
REMARK   89  A    between atoms: _209  and  _210
REMARK   90  A    between atoms: _219  and  _221
REMARK   91  A    between atoms: _221  and  _222
REMARK   92  A    between atoms: _221  and  _224
REMARK   93  A    between atoms: _224  and  _225
REMARK   94  A    between atoms: _228  and  _230
REMARK   95  A    between atoms: _230  and  _231
REMARK   96  A    between atoms: _230  and  _233
REMARK   97  A    between atoms: _233  and  _234
REMARK   98  A    between atoms: _240  and  _242
REMARK   99  A    between atoms: _242  and  _243
REMARK  100  A    between atoms: _242  and  _245
REMARK  101  A    between atoms: _245  and  _246
REMARK  102  A    between atoms: _251  and  _252
REMARK  103  A    between atoms: _254  and  _256
REMARK  104  A    between atoms: _256  and  _257
REMARK  105  A    between atoms: _256  and  _259
REMARK  106  A    between atoms: _259  and  _260
REMARK  107  A    between atoms: _263  and  _265
REMARK  108  A    between atoms: _265  and  _266
REMARK  109  A    between atoms: _265  and  _268
REMARK  110  A    between atoms: _268  and  _269
REMARK  111  A    between atoms: _272  and  _274
REMARK  112  A    between atoms: _274  and  _275
REMARK  113  A    between atoms: _278  and  _280
REMARK  114  A    between atoms: _280  and  _281
REMARK  115  A    between atoms: _280  and  _283
REMARK  116  A    between atoms: _285  and  _287
REMARK  117  A    between atoms: _287  and  _288
REMARK  118  A    between atoms: _290  and  _292
REMARK  119  A    between atoms: _292  and  _293
REMARK  120  A    between atoms: _292  and  _295
REMARK  121  A    between atoms: _295  and  _296
REMARK  122  A    between atoms: _299  and  _301
REMARK  123  A    between atoms: _301  and  _302
REMARK  124  A    between atoms: _301  and  _304
REMARK  125  A    between atoms: _304  and  _305
REMARK  126  A    between atoms: _311  and  _312
REMARK  127  A    between atoms: _317  and  _319
REMARK  128  A    between atoms: _319  and  _320
REMARK  129  A    between atoms: _319  and  _322
REMARK  130  A    between atoms: _322  and  _323
REMARK  131  A    between atoms: _326  and  _328
REMARK  132  A    between atoms: _328  and  _329
REMARK  133  A    between atoms: _328  and  _331
REMARK  134  A    between atoms: _331  and  _332
REMARK  135  A    between atoms: _337  and  _338
REMARK  136  A    between atoms: _340  and  _342
REMARK  137  A    between atoms: _342  and  _343
REMARK  138  A    between atoms: _342  and  _345
REMARK  139  A    between atoms: _345  and  _346
REMARK  140  A    between atoms: _348  and  _350
REMARK  141  A    between atoms: _350  and  _351
REMARK  142  A    between atoms: _350  and  _353
REMARK  143  A    between atoms: _353  and  _354
REMARK  144  A    between atoms: _357  and  _359
REMARK  145  A    between atoms: _359  and  _360
REMARK  146  A    between atoms: _359  and  _362
REMARK  147  A    between atoms: _362  and  _363
REMARK  148  A    between atoms: _366  and  _368
REMARK  149  A    between atoms: _368  and  _369
REMARK  150  A    between atoms: _368  and  _371
REMARK  151  A    between atoms: _371  and  _372
REMARK  152  A    between atoms: _375  and  _377
REMARK  153  A    between atoms: _377  and  _378
REMARK  154  A    between atoms: _377  and  _380
REMARK  155  A    between atoms: _380  and  _381
REMARK  156  A    between atoms: _384  and  _386
REMARK  157  A    between atoms: _386  and  _387
REMARK  158  A    between atoms: _386  and  _389
REMARK  159  A    between atoms: _392  and  _394
REMARK  160  A    between atoms: _394  and  _395
REMARK  161  A    between atoms: _398  and  _400
REMARK  162  A    between atoms: _400  and  _401
REMARK  163  A    between atoms: _400  and  _403
REMARK  164  A    between atoms: _403  and  _404
REMARK  165  A    between atoms: _407  and  _409
REMARK  166  A    between atoms: _409  and  _410
REMARK  167  A    between atoms: _409  and  _412
REMARK  168  A    between atoms: _412  and  _413
REMARK  169  A    between atoms: _416  and  _418
REMARK  170  A    between atoms: _418  and  _419
REMARK  171  A    between atoms: _418  and  _421
REMARK  172  A    between atoms: _421  and  _422
REMARK  173  A    between atoms: _425  and  _427
REMARK  174  A    between atoms: _427  and  _428
REMARK  175  A    between atoms: _427  and  _430
REMARK  176  A    between atoms: _430  and  _431
REMARK  177  A    between atoms: _431  and  _432
REMARK  178  A    between atoms: _435  and  _437
REMARK  179  A    between atoms: _437  and  _438
REMARK  180  A    between atoms: _437  and  _440
REMARK  181  A    between atoms: _440  and  _441
REMARK  182  A    between atoms: _444  and  _446
REMARK  183  A    between atoms: _446  and  _447
REMARK  184  A    between atoms: _446  and  _449
REMARK  185  A    between atoms: _449  and  _450
REMARK  186  A    between atoms: _453  and  _455
REMARK  187  A    between atoms: _455  and  _456
REMARK  188  A    between atoms: _455  and  _458
REMARK  189  A    between atoms: _458  and  _459
REMARK  190  A    between atoms: _462  and  _464
REMARK  191  A    between atoms: _464  and  _465
REMARK  192  A    between atoms: _464  and  _467
REMARK  193  A    between atoms: _467  and  _468
REMARK  194  A    between atoms: _471  and  _473
REMARK  195  A    between atoms: _473  and  _474
REMARK  196  A    between atoms: _473  and  _476
REMARK  197  A    between atoms: _476  and  _477
REMARK  198  A    between atoms: _477  and  _478
REMARK  199  A    between atoms: _478  and  _479
REMARK  200  A    between atoms: _479  and  _480
REMARK  201  A    between atoms: _484  and  _486
REMARK  202  A    between atoms: _486  and  _487
REMARK  203  A    between atoms: _486  and  _489
REMARK  204  A    between atoms: _489  and  _490
REMARK  205  A    between atoms: _493  and  _495
REMARK  206  A    between atoms: _495  and  _496
REMARK  207  A    between atoms: _495  and  _498
REMARK  208  A    between atoms: _498  and  _499
REMARK  209  A    between atoms: _503  and  _504
REMARK  210  A    between atoms: _509  and  _511
REMARK  211  A    between atoms: _511  and  _512
REMARK  212  A    between atoms: _511  and  _514
REMARK  213  A    between atoms: _516  and  _518
REMARK  214  A    between atoms: _518  and  _519
REMARK  215  A    between atoms: _518  and  _521
REMARK  216  A    between atoms: _521  and  _522
REMARK  217  A    between atoms: _525  and  _527
REMARK  218  A    between atoms: _527  and  _528
REMARK  219  A    between atoms: _527  and  _530
REMARK  220  A    between atoms: _530  and  _531
REMARK  221  A    between atoms: _531  and  _532
REMARK  222  A    between atoms: _537  and  _539
REMARK  223  A    between atoms: _539  and  _540
REMARK  224  A    between atoms: _539  and  _542
REMARK  225  A    between atoms: _542  and  _543
REMARK  226  A    between atoms: _545  and  _547
REMARK  227  A    between atoms: _547  and  _548
REMARK  228  A    between atoms: _547  and  _550
REMARK  229  A    between atoms: _550  and  _551
REMARK  230  A    between atoms: _555  and  _556
REMARK  231  A    between atoms: _561  and  _563
REMARK  232  A    between atoms: _563  and  _564
REMARK  233  A    between atoms: _563  and  _566
REMARK  234  A    between atoms: _566  and  _567
REMARK  235  A    between atoms: _567  and  _568
REMARK                            x       y       z     vdW  Elec       q    Type
REMARK                         _______ _______ _______ _____ _____    ______ ____
ROOT
ATOM      1  C   ASP A   2      11.097   7.651  21.494  0.00  0.00    +0.241 C 
ATOM      2  O   ASP A   2      11.826   8.606  21.767  0.00  0.00    -0.273 OA
ATOM      3  N   ILE A   3      10.220   7.674  20.501  0.00  0.00    -0.297 N 
ATOM      4  H   ILE A   3       9.575   6.866  20.386  0.00  0.00    +0.150 HD
ENDROOT
BRANCH   3   5
ATOM      5  CA  ILE A   3      10.123   8.785  19.564  0.00  0.00    +0.149 C 
BRANCH   5   6
ATOM      6  C   ILE A   3       9.032   9.855  19.781  0.00  0.00    +0.241 C 
ATOM      7  N   ASP A   4       8.337   9.824  20.915  0.00  0.00    -0.298 N 
ATOM      8  H   ASP A   4       8.520   9.077  21.615  0.00  0.00    +0.150 HD
ATOM      9  O   ILE A   3       8.807  10.697  18.909  0.00  0.00    -0.273 OA
BRANCH   7  10
ATOM     10  CA  ASP A   4       7.316  10.837  21.181  0.00  0.00    +0.148 C 
BRANCH  10  11
ATOM     11  C   ASP A   4       7.506  11.457  22.568  0.00  0.00    +0.227 C 
ATOM     12  O   ASP A   4       7.495  10.746  23.572  0.00  0.00    -0.286 OA
ENDBRANCH  10  11
BRANCH  10  13
ATOM     13  CB  ASP A   4       5.914  10.251  21.092  0.00  0.00    +0.142 C 
BRANCH  13  14
ATOM     14  CG  ASP A   4       4.849  11.287  21.382  0.00  0.00    +0.367 C 
ATOM     15  OD2 ASP A   4       4.316  11.294  22.515  0.00  0.00    -0.246 OA
ATOM     16  OD1 ASP A   4       4.565  12.115  20.483  0.00  0.00    -0.246 OA
ENDBRANCH  13  14
ENDBRANCH  10  13
ENDBRANCH   7  10
ENDBRANCH   5   6
BRANCH   5  17
ATOM     17  CB  ILE A   3      10.004   8.193  18.131  0.00  0.00    +0.027 C 
ATOM     18  CG2 ILE A   3       8.572   8.172  17.670  0.00  0.00    +0.002 C 
BRANCH  17  19
ATOM     19  CG1 ILE A   3      10.919   8.943  17.186  0.00  0.00    +0.002 C 
ATOM     20  CD1 ILE A   3      12.353   8.464  17.272  0.00  0.00    +0.000 C 
ENDBRANCH  17  19
ENDBRANCH   5  17
ENDBRANCH   3   5
BRANCH   1  21
ATOM     21  CA  ASP A   2      11.131   6.375  22.335  0.00  0.00    +0.160 C 
BRANCH  21  24
ATOM     22  C   SER A   1      12.584   5.661  24.153  0.00  0.00    +0.241 C 
ATOM     23  O   SER A   1      12.393   4.466  23.938  0.00  0.00    -0.274 OA
ATOM     24  N   ASP A   2      12.009   6.634  23.459  0.00  0.00    -0.297 N 
ATOM     25  H   ASP A   2      12.195   7.620  23.732  0.00  0.00    +0.150 HD
BRANCH  22  26
ATOM     26  CA  SER A   1      13.494   6.119  25.274  0.00  0.00    +0.174 C 
BRANCH  26  27
ATOM     27  N   SER A   1      13.579   5.134  26.332  0.00  0.00    -0.236 NA
ATOM     28  H   SER A   1      13.443   4.127  26.111  0.00  0.00    +0.142 HD
ENDBRANCH  26  27
BRANCH  26  29
ATOM     29  CB  SER A   1      14.887   6.422  24.708  0.00  0.00    +0.163 C 
BRANCH  29  30
ATOM     30  OG  SER A   1      15.470   5.264  24.138  0.00  0.00    -0.380 OA
ATOM     31  H   SER A   1      14.895   4.934  23.403  0.00  0.00    +0.211 HD
ENDBRANCH  29  30
ENDBRANCH  26  29
ENDBRANCH  22  26
ENDBRANCH  21  24
BRANCH  21  32
ATOM     32  CB  ASP A   2       9.719   5.990  22.806  0.00  0.00    +0.143 C 
BRANCH  32  33
ATOM     33  CG  ASP A   2       8.947   5.202  21.752  0.00  0.00    +0.367 C 
ATOM     34  OD2 ASP A   2       8.384   4.137  22.082  0.00  0.00    -0.246 OA
ATOM     35  OD1 ASP A   2       8.893   5.651  20.590  0.00  0.00    -0.246 OA
ENDBRANCH  32  33
ENDBRANCH  21  32
ENDBRANCH   1  21
TORSDOF 16
REMARK  Name = ../refined-set-2016/3lcv/3lcv_pocket.pdb
REMARK  235 active torsions:
REMARK  status: ('A' for Active; 'I' for Inactive)
REMARK    1  A    between atoms: _1  and  _3
REMARK    2  A    between atoms: _3  and  _4
REMARK    3  A    between atoms: _3  and  _6
REMARK    4  A    between atoms: _9  and  _11
REMARK    5  A    between atoms: _11  and  _12
REMARK    6  A    between atoms: _15  and  _17
REMARK    7  A    between atoms: _17  and  _18
REMARK    8  A    between atoms: _17  and  _20
REMARK    9  A    between atoms: _20  and  _21
REMARK   10  A    between atoms: _24  and  _26
REMARK   11  A    between atoms: _26  and  _27
REMARK   12  A    between atoms: _26  and  _29
REMARK   13  A    between atoms: _29  and  _30
REMARK   14  A    between atoms: _30  and  _31
REMARK   15  A    between atoms: _31  and  _32
REMARK   16  A    between atoms: _41  and  _43
REMARK   17  A    between atoms: _43  and  _44
REMARK   18  A    between atoms: _43  and  _46
REMARK   19  A    between atoms: _46  and  _47
REMARK   20  A    between atoms: _50  and  _52
REMARK   21  A    between atoms: _52  and  _53
REMARK   22  A    between atoms: _55  and  _57
REMARK   23  A    between atoms: _57  and  _58
REMARK   24  A    between atoms: _57  and  _60
REMARK   25  A    between atoms: _60  and  _61
REMARK   26  A    between atoms: _64  and  _66
REMARK   27  A    between atoms: _66  and  _67
REMARK   28  A    between atoms: _66  and  _69
REMARK   29  A    between atoms: _69  and  _70
REMARK   30  A    between atoms: _70  and  _71
REMARK   31  A    between atoms: _74  and  _76
REMARK   32  A    between atoms: _76  and  _77
REMARK   33  A    between atoms: _76  and  _79
REMARK   34  A    between atoms: _79  and  _80
REMARK   35  A    between atoms: _83  and  _85
REMARK   36  A    between atoms: _85  and  _86
REMARK   37  A    between atoms: _85  and  _88
REMARK   38  A    between atoms: _88  and  _89
REMARK   39  A    between atoms: _94  and  _95
REMARK   40  A    between atoms: _97  and  _99
REMARK   41  A    between atoms: _99  and  _100
REMARK   42  A    between atoms: _102  and  _104
REMARK   43  A    between atoms: _104  and  _105
REMARK   44  A    between atoms: _108  and  _110
REMARK   45  A    between atoms: _110  and  _111
REMARK   46  A    between atoms: _110  and  _113
REMARK   47  A    between atoms: _113  and  _114
REMARK   48  A    between atoms: _120  and  _122
REMARK   49  A    between atoms: _122  and  _123
REMARK   50  A    between atoms: _122  and  _125
REMARK   51  A    between atoms: _125  and  _126
REMARK   52  A    between atoms: _129  and  _131
REMARK   53  A    between atoms: _131  and  _132
REMARK   54  A    between atoms: _131  and  _134
REMARK   55  A    between atoms: _134  and  _135
REMARK   56  A    between atoms: _135  and  _136
REMARK   57  A    between atoms: _138  and  _140
REMARK   58  A    between atoms: _140  and  _141
REMARK   59  A    between atoms: _140  and  _143
REMARK   60  A    between atoms: _143  and  _144
REMARK   61  A    between atoms: _149  and  _151
REMARK   62  A    between atoms: _151  and  _152
REMARK   63  A    between atoms: _151  and  _154
REMARK   64  A    between atoms: _154  and  _155
REMARK   65  A    between atoms: _158  and  _160
REMARK   66  A    between atoms: _160  and  _161
REMARK   67  A    between atoms: _160  and  _163
REMARK   68  A    between atoms: _163  and  _164
REMARK   69  A    between atoms: _166  and  _168
REMARK   70  A    between atoms: _168  and  _169
REMARK   71  A    between atoms: _168  and  _171
REMARK   72  A    between atoms: _171  and  _172
REMARK   73  A    between atoms: _175  and  _177
REMARK   74  A    between atoms: _177  and  _178
REMARK   75  A    between atoms: _177  and  _180
REMARK   76  A    between atoms: _180  and  _181
REMARK   77  A    between atoms: _181  and  _182
REMARK   78  A    between atoms: _182  and  _183
REMARK   79  A    between atoms: _192  and  _194
REMARK   80  A    between atoms: _194  and  _195
REMARK   81  A    between atoms: _194  and  _197
REMARK   82  A    between atoms: _197  and  _198
REMARK   83  A    between atoms: _198  and  _199
REMARK   84  A    between atoms: _202  and  _204
REMARK   85  A    between atoms: _204  and  _205
REMARK   86  A    between atoms: _204  and  _207
REMARK   87  A    between atoms: _207  and  _208
REMARK   88  A    between atoms: _208  and  _209
REMARK   89  A    between atoms: _209  and  _210
REMARK   90  A    between atoms: _219  and  _221
REMARK   91  A    between atoms: _221  and  _222
REMARK   92  A    between atoms: _221  and  _224
REMARK   93  A    between atoms: _224  and  _225
REMARK   94  A    between atoms: _228  and  _230
REMARK   95  A    between atoms: _230  and  _231
REMARK   96  A    between atoms: _230  and  _233
REMARK   97  A    between atoms: _233  and  _234
REMARK   98  A    between atoms: _240  and  _242
REMARK   99  A    between atoms: _242  and  _243
REMARK  100  A    between atoms: _242  and  _245
REMARK  101  A    between atoms: _245  and  _246
REMARK  102  A    between atoms: _251  and  _252
REMARK  103  A    between atoms: _254  and  _256
REMARK  104  A    between atoms: _256  and  _257
REMARK  105  A    between atoms: _256  and  _259
REMARK  106  A    between atoms: _259  and  _260
REMARK  107  A    between atoms: _263  and  _265
REMARK  108  A    between atoms: _265  and  _266
REMARK  109  A    between atoms: _265  and  _268
REMARK  110  A    between atoms: _268  and  _269
REMARK  111  A    between atoms: _272  and  _274
REMARK  112  A    between atoms: _274  and  _275
REMARK  113  A    between atoms: _278  and  _280
REMARK  114  A    between atoms: _280  and  _281
REMARK  115  A    between atoms: _280  and  _283
REMARK  116  A    between atoms: _285  and  _287
REMARK  117  A    between atoms: _287  and  _288
REMARK  118  A    between atoms: _290  and  _292
REMARK  119  A    between atoms: _292  and  _293
REMARK  120  A    between atoms: _292  and  _295
REMARK  121  A    between atoms: _295  and  _296
REMARK  122  A    between atoms: _299  and  _301
REMARK  123  A    between atoms: _301  and  _302
REMARK  124  A    between atoms: _301  and  _304
REMARK  125  A    between atoms: _304  and  _305
REMARK  126  A    between atoms: _311  and  _312
REMARK  127  A    between atoms: _317  and  _319
REMARK  128  A    between atoms: _319  and  _320
REMARK  129  A    between atoms: _319  and  _322
REMARK  130  A    between atoms: _322  and  _323
REMARK  131  A    between atoms: _326  and  _328
REMARK  132  A    between atoms: _328  and  _329
REMARK  133  A    between atoms: _328  and  _331
REMARK  134  A    between atoms: _331  and  _332
REMARK  135  A    between atoms: _337  and  _338
REMARK  136  A    between atoms: _340  and  _342
REMARK  137  A    between atoms: _342  and  _343
REMARK  138  A    between atoms: _342  and  _345
REMARK  139  A    between atoms: _345  and  _346
REMARK  140  A    between atoms: _348  and  _350
REMARK  141  A    between atoms: _350  and  _351
REMARK  142  A    between atoms: _350  and  _353
REMARK  143  A    between atoms: _353  and  _354
REMARK  144  A    between atoms: _357  and  _359
REMARK  145  A    between atoms: _359  and  _360
REMARK  146  A    between atoms: _359  and  _362
REMARK  147  A    between atoms: _362  and  _363
REMARK  148  A    between atoms: _366  and  _368
REMARK  149  A    between atoms: _368  and  _369
REMARK  150  A    between atoms: _368  and  _371
REMARK  151  A    between atoms: _371  and  _372
REMARK  152  A    between atoms: _375  and  _377
REMARK  153  A    between atoms: _377  and  _378
REMARK  154  A    between atoms: _377  and  _380
REMARK  155  A    between atoms: _380  and  _381
REMARK  156  A    between atoms: _384  and  _386
REMARK  157  A    between atoms: _386  and  _387
REMARK  158  A    between atoms: _386  and  _389
REMARK  159  A    between atoms: _392  and  _394
REMARK  160  A    between atoms: _394  and  _395
REMARK  161  A    between atoms: _398  and  _400
REMARK  162  A    between atoms: _400  and  _401
REMARK  163  A    between atoms: _400  and  _403
REMARK  164  A    between atoms: _403  and  _404
REMARK  165  A    between atoms: _407  and  _409
REMARK  166  A    between atoms: _409  and  _410
REMARK  167  A    between atoms: _409  and  _412
REMARK  168  A    between atoms: _412  and  _413
REMARK  169  A    between atoms: _416  and  _418
REMARK  170  A    between atoms: _418  and  _419
REMARK  171  A    between atoms: _418  and  _421
REMARK  172  A    between atoms: _421  and  _422
REMARK  173  A    between atoms: _425  and  _427
REMARK  174  A    between atoms: _427  and  _428
REMARK  175  A    between atoms: _427  and  _430
REMARK  176  A    between atoms: _430  and  _431
REMARK  177  A    between atoms: _431  and  _432
REMARK  178  A    between atoms: _435  and  _437
REMARK  179  A    between atoms: _437  and  _438
REMARK  180  A    between atoms: _437  and  _440
REMARK  181  A    between atoms: _440  and  _441
REMARK  182  A    between atoms: _444  and  _446
REMARK  183  A    between atoms: _446  and  _447
REMARK  184  A    between atoms: _446  and  _449
REMARK  185  A    between atoms: _449  and  _450
REMARK  186  A    between atoms: _453  and  _455
REMARK  187  A    between atoms: _455  and  _456
REMARK  188  A    between atoms: _455  and  _458
REMARK  189  A    between atoms: _458  and  _459
REMARK  190  A    between atoms: _462  and  _464
REMARK  191  A    between atoms: _464  and  _465
REMARK  192  A    between atoms: _464  and  _467
REMARK  193  A    between atoms: _467  and  _468
REMARK  194  A    between atoms: _471  and  _473
REMARK  195  A    between atoms: _473  and  _474
REMARK  196  A    between atoms: _473  and  _476
REMARK  197  A    between atoms: _476  and  _477
REMARK  198  A    between atoms: _477  and  _478
REMARK  199  A    between atoms: _478  and  _479
REMARK  200  A    between atoms: _479  and  _480
REMARK  201  A    between atoms: _484  and  _486
REMARK  202  A    between atoms: _486  and  _487
REMARK  203  A    between atoms: _486  and  _489
REMARK  204  A    between atoms: _489  and  _490
REMARK  205  A    between atoms: _493  and  _495
REMARK  206  A    between atoms: _495  and  _496
REMARK  207  A    between atoms: _495  and  _498
REMARK  208  A    between atoms: _498  and  _499
REMARK  209  A    between atoms: _503  and  _504
REMARK  210  A    between atoms: _509  and  _511
REMARK  211  A    between atoms: _511  and  _512
REMARK  212  A    between atoms: _511  and  _514
REMARK  213  A    between atoms: _516  and  _518
REMARK  214  A    between atoms: _518  and  _519
REMARK  215  A    between atoms: _518  and  _521
REMARK  216  A    between atoms: _521  and  _522
REMARK  217  A    between atoms: _525  and  _527
REMARK  218  A    between atoms: _527  and  _528
REMARK  219  A    between atoms: _527  and  _530
REMARK  220  A    between atoms: _530  and  _531
REMARK  221  A    between atoms: _531  and  _532
REMARK  222  A    between atoms: _537  and  _539
REMARK  223  A    between atoms: _539  and  _540
REMARK  224  A    between atoms: _539  and  _542
REMARK  225  A    between atoms: _542  and  _543
REMARK  226  A    between atoms: _545  and  _547
REMARK  227  A    between atoms: _547  and  _548
REMARK  228  A    between atoms: _547  and  _550
REMARK  229  A    between atoms: _550  and  _551
REMARK  230  A    between atoms: _555  and  _556
REMARK  231  A    between atoms: _561  and  _563
REMARK  232  A    between atoms: _563  and  _564
REMARK  233  A    between atoms: _563  and  _566
REMARK  234  A    between atoms: _566  and  _567
REMARK  235  A    between atoms: _567  and  _568
REMARK                            x       y       z     vdW  Elec       q    Type
REMARK                         _______ _______ _______ _____ _____    ______ ____
ROOT
ATOM      1  CA  LEU A   1       4.585   9.334  25.620  0.00  0.00    +0.133 C 
ENDROOT
BRANCH   1   2
ATOM      2  N   LEU A   1       4.568  10.731  25.203  0.00  0.00    -0.239 NA
ATOM      3  H   LEU A   1       4.679  10.967  24.196  0.00  0.00    +0.142 HD
ENDBRANCH   1   2
BRANCH   1   4
ATOM      4  C   LEU A   1       5.745   9.115  26.597  0.00  0.00    +0.224 C 
ATOM      5  O   LEU A   1       5.565   8.546  27.670  0.00  0.00    -0.287 OA
ENDBRANCH   1   4
BRANCH   1   6
ATOM      6  CB  LEU A   1       4.737   8.423  24.393  0.00  0.00    +0.025 C 
BRANCH   6   7
ATOM      7  CG  LEU A   1       4.939   6.919  24.622  0.00  0.00    +0.002 C 
ATOM      8  CD2 LEU A   1       6.392   6.633  25.008  0.00  0.00    +0.000 C 
ATOM      9  CD1 LEU A   1       4.574   6.163  23.348  0.00  0.00    +0.000 C 
ENDBRANCH   6   7
ENDBRANCH   1   6
TORSDOF 4
REMARK  Name = ../refined-set-2016/3lcv/3lcv_pocket.pdb
REMARK  235 active torsions:
REMARK  status: ('A' for Active; 'I' for Inactive)
REMARK    1  A    between atoms: _1  and  _3
REMARK    2  A    between atoms: _3  and  _4
REMARK    3  A    between atoms: _3  and  _6
REMARK    4  A    between atoms: _9  and  _11
REMARK    5  A    between atoms: _11  and  _12
REMARK    6  A    between atoms: _15  and  _17
REMARK    7  A    between atoms: _17  and  _18
REMARK    8  A    between atoms: _17  and  _20
REMARK    9  A    between atoms: _20  and  _21
REMARK   10  A    between atoms: _24  and  _26
REMARK   11  A    between atoms: _26  and  _27
REMARK   12  A    between atoms: _26  and  _29
REMARK   13  A    between atoms: _29  and  _30
REMARK   14  A    between atoms: _30  and  _31
REMARK   15  A    between atoms: _31  and  _32
REMARK   16  A    between atoms: _41  and  _43
REMARK   17  A    between atoms: _43  and  _44
REMARK   18  A    between atoms: _43  and  _46
REMARK   19  A    between atoms: _46  and  _47
REMARK   20  A    between atoms: _50  and  _52
REMARK   21  A    between atoms: _52  and  _53
REMARK   22  A    between atoms: _55  and  _57
REMARK   23  A    between atoms: _57  and  _58
REMARK   24  A    between atoms: _57  and  _60
REMARK   25  A    between atoms: _60  and  _61
REMARK   26  A    between atoms: _64  and  _66
REMARK   27  A    between atoms: _66  and  _67
REMARK   28  A    between atoms: _66  and  _69
REMARK   29  A    between atoms: _69  and  _70
REMARK   30  A    between atoms: _70  and  _71
REMARK   31  A    between atoms: _74  and  _76
REMARK   32  A    between atoms: _76  and  _77
REMARK   33  A    between atoms: _76  and  _79
REMARK   34  A    between atoms: _79  and  _80
REMARK   35  A    between atoms: _83  and  _85
REMARK   36  A    between atoms: _85  and  _86
REMARK   37  A    between atoms: _85  and  _88
REMARK   38  A    between atoms: _88  and  _89
REMARK   39  A    between atoms: _94  and  _95
REMARK   40  A    between atoms: _97  and  _99
REMARK   41  A    between atoms: _99  and  _100
REMARK   42  A    between atoms: _102  and  _104
REMARK   43  A    between atoms: _104  and  _105
REMARK   44  A    between atoms: _108  and  _110
REMARK   45  A    between atoms: _110  and  _111
REMARK   46  A    between atoms: _110  and  _113
REMARK   47  A    between atoms: _113  and  _114
REMARK   48  A    between atoms: _120  and  _122
REMARK   49  A    between atoms: _122  and  _123
REMARK   50  A    between atoms: _122  and  _125
REMARK   51  A    between atoms: _125  and  _126
REMARK   52  A    between atoms: _129  and  _131
REMARK   53  A    between atoms: _131  and  _132
REMARK   54  A    between atoms: _131  and  _134
REMARK   55  A    between atoms: _134  and  _135
REMARK   56  A    between atoms: _135  and  _136
REMARK   57  A    between atoms: _138  and  _140
REMARK   58  A    between atoms: _140  and  _141
REMARK   59  A    between atoms: _140  and  _143
REMARK   60  A    between atoms: _143  and  _144
REMARK   61  A    between atoms: _149  and  _151
REMARK   62  A    between atoms: _151  and  _152
REMARK   63  A    between atoms: _151  and  _154
REMARK   64  A    between atoms: _154  and  _155
REMARK   65  A    between atoms: _158  and  _160
REMARK   66  A    between atoms: _160  and  _161
REMARK   67  A    between atoms: _160  and  _163
REMARK   68  A    between atoms: _163  and  _164
REMARK   69  A    between atoms: _166  and  _168
REMARK   70  A    between atoms: _168  and  _169
REMARK   71  A    between atoms: _168  and  _171
REMARK   72  A    between atoms: _171  and  _172
REMARK   73  A    between atoms: _175  and  _177
REMARK   74  A    between atoms: _177  and  _178
REMARK   75  A    between atoms: _177  and  _180
REMARK   76  A    between atoms: _180  and  _181
REMARK   77  A    between atoms: _181  and  _182
REMARK   78  A    between atoms: _182  and  _183
REMARK   79  A    between atoms: _192  and  _194
REMARK   80  A    between atoms: _194  and  _195
REMARK   81  A    between atoms: _194  and  _197
REMARK   82  A    between atoms: _197  and  _198
REMARK   83  A    between atoms: _198  and  _199
REMARK   84  A    between atoms: _202  and  _204
REMARK   85  A    between atoms: _204  and  _205
REMARK   86  A    between atoms: _204  and  _207
REMARK   87  A    between atoms: _207  and  _208
REMARK   88  A    between atoms: _208  and  _209
REMARK   89  A    between atoms: _209  and  _210
REMARK   90  A    between atoms: _219  and  _221
REMARK   91  A    between atoms: _221  and  _222
REMARK   92  A    between atoms: _221  and  _224
REMARK   93  A    between atoms: _224  and  _225
REMARK   94  A    between atoms: _228  and  _230
REMARK   95  A    between atoms: _230  and  _231
REMARK   96  A    between atoms: _230  and  _233
REMARK   97  A    between atoms: _233  and  _234
REMARK   98  A    between atoms: _240  and  _242
REMARK   99  A    between atoms: _242  and  _243
REMARK  100  A    between atoms: _242  and  _245
REMARK  101  A    between atoms: _245  and  _246
REMARK  102  A    between atoms: _251  and  _252
REMARK  103  A    between atoms: _254  and  _256
REMARK  104  A    between atoms: _256  and  _257
REMARK  105  A    between atoms: _256  and  _259
REMARK  106  A    between atoms: _259  and  _260
REMARK  107  A    between atoms: _263  and  _265
REMARK  108  A    between atoms: _265  and  _266
REMARK  109  A    between atoms: _265  and  _268
REMARK  110  A    between atoms: _268  and  _269
REMARK  111  A    between atoms: _272  and  _274
REMARK  112  A    between atoms: _274  and  _275
REMARK  113  A    between atoms: _278  and  _280
REMARK  114  A    between atoms: _280  and  _281
REMARK  115  A    between atoms: _280  and  _283
REMARK  116  A    between atoms: _285  and  _287
REMARK  117  A    between atoms: _287  and  _288
REMARK  118  A    between atoms: _290  and  _292
REMARK  119  A    between atoms: _292  and  _293
REMARK  120  A    between atoms: _292  and  _295
REMARK  121  A    between atoms: _295  and  _296
REMARK  122  A    between atoms: _299  and  _301
REMARK  123  A    between atoms: _301  and  _302
REMARK  124  A    between atoms: _301  and  _304
REMARK  125  A    between atoms: _304  and  _305
REMARK  126  A    between atoms: _311  and  _312
REMARK  127  A    between atoms: _317  and  _319
REMARK  128  A    between atoms: _319  and  _320
REMARK  129  A    between atoms: _319  and  _322
REMARK  130  A    between atoms: _322  and  _323
REMARK  131  A    between atoms: _326  and  _328
REMARK  132  A    between atoms: _328  and  _329
REMARK  133  A    between atoms: _328  and  _331
REMARK  134  A    between atoms: _331  and  _332
REMARK  135  A    between atoms: _337  and  _338
REMARK  136  A    between atoms: _340  and  _342
REMARK  137  A    between atoms: _342  and  _343
REMARK  138  A    between atoms: _342  and  _345
REMARK  139  A    between atoms: _345  and  _346
REMARK  140  A    between atoms: _348  and  _350
REMARK  141  A    between atoms: _350  and  _351
REMARK  142  A    between atoms: _350  and  _353
REMARK  143  A    between atoms: _353  and  _354
REMARK  144  A    between atoms: _357  and  _359
REMARK  145  A    between atoms: _359  and  _360
REMARK  146  A    between atoms: _359  and  _362
REMARK  147  A    between atoms: _362  and  _363
REMARK  148  A    between atoms: _366  and  _368
REMARK  149  A    between atoms: _368  and  _369
REMARK  150  A    between atoms: _368  and  _371
REMARK  151  A    between atoms: _371  and  _372
REMARK  152  A    between atoms: _375  and  _377
REMARK  153  A    between atoms: _377  and  _378
REMARK  154  A    between atoms: _377  and  _380
REMARK  155  A    between atoms: _380  and  _381
REMARK  156  A    between atoms: _384  and  _386
REMARK  157  A    between atoms: _386  and  _387
REMARK  158  A    between atoms: _386  and  _389
REMARK  159  A    between atoms: _392  and  _394
REMARK  160  A    between atoms: _394  and  _395
REMARK  161  A    between atoms: _398  and  _400
REMARK  162  A    between atoms: _400  and  _401
REMARK  163  A    between atoms: _400  and  _403
REMARK  164  A    between atoms: _403  and  _404
REMARK  165  A    between atoms: _407  and  _409
REMARK  166  A    between atoms: _409  and  _410
REMARK  167  A    between atoms: _409  and  _412
REMARK  168  A    between atoms: _412  and  _413
REMARK  169  A    between atoms: _416  and  _418
REMARK  170  A    between atoms: _418  and  _419
REMARK  171  A    between atoms: _418  and  _421
REMARK  172  A    between atoms: _421  and  _422
REMARK  173  A    between atoms: _425  and  _427
REMARK  174  A    between atoms: _427  and  _428
REMARK  175  A    between atoms: _427  and  _430
REMARK  176  A    between atoms: _430  and  _431
REMARK  177  A    between atoms: _431  and  _432
REMARK  178  A    between atoms: _435  and  _437
REMARK  179  A    between atoms: _437  and  _438
REMARK  180  A    between atoms: _437  and  _440
REMARK  181  A    between atoms: _440  and  _441
REMARK  182  A    between atoms: _444  and  _446
REMARK  183  A    between atoms: _446  and  _447
REMARK  184  A    between atoms: _446  and  _449
REMARK  185  A    between atoms: _449  and  _450
REMARK  186  A    between atoms: _453  and  _455
REMARK  187  A    between atoms: _455  and  _456
REMARK  188  A    between atoms: _455  and  _458
REMARK  189  A    between atoms: _458  and  _459
REMARK  190  A    between atoms: _462  and  _464
REMARK  191  A    between atoms: _464  and  _465
REMARK  192  A    between atoms: _464  and  _467
REMARK  193  A    between atoms: _467  and  _468
REMARK  194  A    between atoms: _471  and  _473
REMARK  195  A    between atoms: _473  and  _474
REMARK  196  A    between atoms: _473  and  _476
REMARK  197  A    between atoms: _476  and  _477
REMARK  198  A    between atoms: _477  and  _478
REMARK  199  A    between atoms: _478  and  _479
REMARK  200  A    between atoms: _479  and  _480
REMARK  201  A    between atoms: _484  and  _486
REMARK  202  A    between atoms: _486  and  _487
REMARK  203  A    between atoms: _486  and  _489
REMARK  204  A    between atoms: _489  and  _490
REMARK  205  A    between atoms: _493  and  _495
REMARK  206  A    between atoms: _495  and  _496
REMARK  207  A    between atoms: _495  and  _498
REMARK  208  A    between atoms: _498  and  _499
REMARK  209  A    between atoms: _503  and  _504
REMARK  210  A    between atoms: _509  and  _511
REMARK  211  A    between atoms: _511  and  _512
REMARK  212  A    between atoms: _511  and  _514
REMARK  213  A    between atoms: _516  and  _518
REMARK  214  A    between atoms: _518  and  _519
REMARK  215  A    between atoms: _518  and  _521
REMARK  216  A    between atoms: _521  and  _522
REMARK  217  A    between atoms: _525  and  _527
REMARK  218  A    between atoms: _527  and  _528
REMARK  219  A    between atoms: _527  and  _530
REMARK  220  A    between atoms: _530  and  _531
REMARK  221  A    between atoms: _531  and  _532
REMARK  222  A    between atoms: _537  and  _539
REMARK  223  A    between atoms: _539  and  _540
REMARK  224  A    between atoms: _539  and  _542
REMARK  225  A    between atoms: _542  and  _543
REMARK  226  A    between atoms: _545  and  _547
REMARK  227  A    between atoms: _547  and  _548
REMARK  228  A    between atoms: _547  and  _550
REMARK  229  A    between atoms: _550  and  _551
REMARK  230  A    between atoms: _555  and  _556
REMARK  231  A    between atoms: _561  and  _563
REMARK  232  A    between atoms: _563  and  _564
REMARK  233  A    between atoms: _563  and  _566
REMARK  234  A    between atoms: _566  and  _567
REMARK  235  A    between atoms: _567  and  _568
REMARK                            x       y       z     vdW  Elec       q    Type
REMARK                         _______ _______ _______ _____ _____    ______ ____
ROOT
ATOM      1  CA  LEU A   4      17.447   4.517  17.099  0.00  0.00    +0.149 C 
ENDROOT
BRANCH   1   3
ATOM      2  C   ASP A   3      16.745   6.864  17.142  0.00  0.00    +0.241 C 
ATOM      3  N   LEU A   4      16.449   5.571  17.252  0.00  0.00    -0.297 N 
ATOM      4  H   LEU A   4      15.466   5.300  17.455  0.00  0.00    +0.150 HD
ATOM      5  O   ASP A   3      17.874   7.274  16.868  0.00  0.00    -0.273 OA
BRANCH   2   6
ATOM      6  CA  ASP A   3      15.592   7.844  17.377  0.00  0.00    +0.160 C 
BRANCH   6   9
ATOM      7  C   ALA A   2      15.293   8.314  19.766  0.00  0.00    +0.241 C 
ATOM      8  O   ALA A   2      14.428   7.452  19.908  0.00  0.00    -0.273 OA
ATOM      9  N   ASP A   3      15.893   8.580  18.606  0.00  0.00    -0.297 N 
ATOM     10  H   ASP A   3      16.602   9.340  18.573  0.00  0.00    +0.150 HD
BRANCH   7  11
ATOM     11  CA  ALA A   2      15.741   9.153  20.949  0.00  0.00    +0.149 C 
ATOM     12  CB  ALA A   2      16.780   8.384  21.755  0.00  0.00    +0.031 C 
BRANCH  11  15
ATOM     13  C   VAL A   1      14.571  10.805  22.255  0.00  0.00    +0.238 C 
ATOM     14  O   VAL A   1      15.381  11.670  21.925  0.00  0.00    -0.274 OA
ATOM     15  N   ALA A   2      14.649   9.555  21.823  0.00  0.00    -0.297 N 
ATOM     16  H   ALA A   2      13.929   8.861  22.109  0.00  0.00    +0.150 HD
BRANCH  13  17
ATOM     17  CA  VAL A   1      13.431  11.138  23.211  0.00  0.00    +0.145 C 
BRANCH  17  18
ATOM     18  CB  VAL A   1      12.770  12.467  22.771  0.00  0.00    +0.025 C 
ATOM     19  CG2 VAL A   1      11.627  12.823  23.715  0.00  0.00    +0.002 C 
ATOM     20  CG1 VAL A   1      12.245  12.331  21.328  0.00  0.00    +0.002 C 
ENDBRANCH  17  18
BRANCH  17  21
ATOM     21  N   VAL A   1      14.119  11.271  24.486  0.00  0.00    -0.238 NA
ATOM     22  H   VAL A   1      14.596  12.168  24.709  0.00  0.00    +0.142 HD
ENDBRANCH  17  21
ENDBRANCH  13  17
ENDBRANCH  11  15
ENDBRANCH   7  11
ENDBRANCH   6   9
BRANCH   6  23
ATOM     23  CB  ASP A   3      15.475   8.812  16.195  0.00  0.00    +0.143 C 
BRANCH  23  24
ATOM     24  CG  ASP A   3      15.055   8.116  14.915  0.00  0.00    +0.367 C 
ATOM     25  OD2 ASP A   3      15.660   7.072  14.585  0.00  0.00    -0.246 OA
ATOM     26  OD1 ASP A   3      14.126   8.610  14.241  0.00  0.00    -0.246 OA
ENDBRANCH  23  24
ENDBRANCH   6  23
ENDBRANCH   2   6
ENDBRANCH   1   3
BRANCH   1  27
ATOM     27  C   LEU A   4      18.291   4.577  15.841  0.00  0.00    +0.241 C 
ATOM     28  O   LEU A   4      19.373   3.991  15.799  0.00  0.00    -0.273 OA
ATOM     29  N   LEU A   5      17.800   5.269  14.815  0.00  0.00    -0.297 N 
ATOM     30  H   LEU A   5      16.881   5.746  14.912  0.00  0.00    +0.150 HD
BRANCH  29  31
ATOM     31  CA  LEU A   5      18.530   5.368  13.558  0.00  0.00    +0.149 C 
BRANCH  31  32
ATOM     32  C   LEU A   5      19.499   6.537  13.504  0.00  0.00    +0.241 C 
ATOM     33  N   GLU A   6      19.568   7.317  14.578  0.00  0.00    -0.297 N 
ATOM     34  H   GLU A   6      18.973   7.106  15.405  0.00  0.00    +0.150 HD
ATOM     35  O   LEU A   5      20.186   6.725  12.502  0.00  0.00    -0.273 OA
BRANCH  33  36
ATOM     36  CA  GLU A   6      20.465   8.463  14.613  0.00  0.00    +0.149 C 
BRANCH  36  37
ATOM     37  C   GLU A   6      21.189   8.665  15.945  0.00  0.00    +0.241 C 
ATOM     38  N   ASP A   7      20.437   8.638  17.038  0.00  0.00    -0.298 N 
ATOM     39  H   ASP A   7      19.418   8.452  16.942  0.00  0.00    +0.150 HD
ATOM     40  O   GLU A   6      22.408   8.837  15.975  0.00  0.00    -0.273 OA
BRANCH  38  41
ATOM     41  CA  ASP A   7      20.990   8.861  18.371  0.00  0.00    +0.148 C 
BRANCH  41  42
ATOM     42  C   ASP A   7      22.035   7.852  18.829  0.00  0.00    +0.227 C 
ATOM     43  O   ASP A   7      22.052   6.712  18.375  0.00  0.00    -0.286 OA
ENDBRANCH  41  42
BRANCH  41  44
ATOM     44  CB  ASP A   7      19.841   8.948  19.379  0.00  0.00    +0.142 C 
BRANCH  44  45
ATOM     45  CG  ASP A   7      19.103  10.273  19.296  0.00  0.00    +0.367 C 
ATOM     46  OD2 ASP A   7      19.662  11.289  19.761  0.00  0.00    -0.246 OA
ATOM     47  OD1 ASP A   7      17.977  10.308  18.756  0.00  0.00    -0.246 OA
ENDBRANCH  44  45
ENDBRANCH  41  44
ENDBRANCH  38  41
ENDBRANCH  36  37
BRANCH  36  48
ATOM     48  CB  GLU A   6      19.697   9.747  14.265  0.00  0.00    +0.041 C 
BRANCH  48  49
ATOM     49  CG  GLU A   6      19.069   9.748  12.880  0.00  0.00    +0.116 C 
BRANCH  49  50
ATOM     50  CD  GLU A   6      18.662  11.136  12.417  0.00  0.00    +0.365 C 
ATOM     51  OE2 GLU A   6      18.530  12.046  13.266  0.00  0.00    -0.246 OA
ATOM     52  OE1 GLU A   6      18.464  11.315  11.198  0.00  0.00    -0.246 OA
ENDBRANCH  49  50
ENDBRANCH  48  49
ENDBRANCH  36  48
ENDBRANCH  33  36
ENDBRANCH  31  32
BRANCH  31  53
ATOM     53  CB  LEU A   5      17.551   5.462  12.385  0.00  0.00    +0.029 C 
BRANCH  53  54
ATOM     54  CG  LEU A   5      16.545   4.316  12.253  0.00  0.00    +0.002 C 
ATOM     55  CD2 LEU A   5      17.265   2.977  12.335  0.00  0.00    +0.000 C 
ATOM     56  CD1 LEU A   5      15.820   4.448  10.925  0.00  0.00    +0.000 C 
ENDBRANCH  53  54
ENDBRANCH  31  53
ENDBRANCH  29  31
ENDBRANCH   1  27
BRANCH   1  57
ATOM     57  CB  LEU A   4      16.773   3.140  17.181  0.00  0.00    +0.029 C 
BRANCH  57  58
ATOM     58  CG  LEU A   4      16.214   2.762  18.561  0.00  0.00    +0.002 C 
ATOM     59  CD2 LEU A   4      17.374   2.557  19.513  0.00  0.00    +0.000 C 
ATOM     60  CD1 LEU A   4      15.356   1.500  18.469  0.00  0.00    +0.000 C 
ENDBRANCH  57  58
ENDBRANCH   1  57
TORSDOF 26
REMARK  Name = ../refined-set-2016/3lcv/3lcv_pocket.pdb
REMARK  235 active torsions:
REMARK  status: ('A' for Active; 'I' for Inactive)
REMARK    1  A    between atoms: _1  and  _3
REMARK    2  A    between atoms: _3  and  _4
REMARK    3  A    between atoms: _3  and  _6
REMARK    4  A    between atoms: _9  and  _11
REMARK    5  A    between atoms: _11  and  _12
REMARK    6  A    between atoms: _15  and  _17
REMARK    7  A    between atoms: _17  and  _18
REMARK    8  A    between atoms: _17  and  _20
REMARK    9  A    between atoms: _20  and  _21
REMARK   10  A    between atoms: _24  and  _26
REMARK   11  A    between atoms: _26  and  _27
REMARK   12  A    between atoms: _26  and  _29
REMARK   13  A    between atoms: _29  and  _30
REMARK   14  A    between atoms: _30  and  _31
REMARK   15  A    between atoms: _31  and  _32
REMARK   16  A    between atoms: _41  and  _43
REMARK   17  A    between atoms: _43  and  _44
REMARK   18  A    between atoms: _43  and  _46
REMARK   19  A    between atoms: _46  and  _47
REMARK   20  A    between atoms: _50  and  _52
REMARK   21  A    between atoms: _52  and  _53
REMARK   22  A    between atoms: _55  and  _57
REMARK   23  A    between atoms: _57  and  _58
REMARK   24  A    between atoms: _57  and  _60
REMARK   25  A    between atoms: _60  and  _61
REMARK   26  A    between atoms: _64  and  _66
REMARK   27  A    between atoms: _66  and  _67
REMARK   28  A    between atoms: _66  and  _69
REMARK   29  A    between atoms: _69  and  _70
REMARK   30  A    between atoms: _70  and  _71
REMARK   31  A    between atoms: _74  and  _76
REMARK   32  A    between atoms: _76  and  _77
REMARK   33  A    between atoms: _76  and  _79
REMARK   34  A    between atoms: _79  and  _80
REMARK   35  A    between atoms: _83  and  _85
REMARK   36  A    between atoms: _85  and  _86
REMARK   37  A    between atoms: _85  and  _88
REMARK   38  A    between atoms: _88  and  _89
REMARK   39  A    between atoms: _94  and  _95
REMARK   40  A    between atoms: _97  and  _99
REMARK   41  A    between atoms: _99  and  _100
REMARK   42  A    between atoms: _102  and  _104
REMARK   43  A    between atoms: _104  and  _105
REMARK   44  A    between atoms: _108  and  _110
REMARK   45  A    between atoms: _110  and  _111
REMARK   46  A    between atoms: _110  and  _113
REMARK   47  A    between atoms: _113  and  _114
REMARK   48  A    between atoms: _120  and  _122
REMARK   49  A    between atoms: _122  and  _123
REMARK   50  A    between atoms: _122  and  _125
REMARK   51  A    between atoms: _125  and  _126
REMARK   52  A    between atoms: _129  and  _131
REMARK   53  A    between atoms: _131  and  _132
REMARK   54  A    between atoms: _131  and  _134
REMARK   55  A    between atoms: _134  and  _135
REMARK   56  A    between atoms: _135  and  _136
REMARK   57  A    between atoms: _138  and  _140
REMARK   58  A    between atoms: _140  and  _141
REMARK   59  A    between atoms: _140  and  _143
REMARK   60  A    between atoms: _143  and  _144
REMARK   61  A    between atoms: _149  and  _151
REMARK   62  A    between atoms: _151  and  _152
REMARK   63  A    between atoms: _151  and  _154
REMARK   64  A    between atoms: _154  and  _155
REMARK   65  A    between atoms: _158  and  _160
REMARK   66  A    between atoms: _160  and  _161
REMARK   67  A    between atoms: _160  and  _163
REMARK   68  A    between atoms: _163  and  _164
REMARK   69  A    between atoms: _166  and  _168
REMARK   70  A    between atoms: _168  and  _169
REMARK   71  A    between atoms: _168  and  _171
REMARK   72  A    between atoms: _171  and  _172
REMARK   73  A    between atoms: _175  and  _177
REMARK   74  A    between atoms: _177  and  _178
REMARK   75  A    between atoms: _177  and  _180
REMARK   76  A    between atoms: _180  and  _181
REMARK   77  A    between atoms: _181  and  _182
REMARK   78  A    between atoms: _182  and  _183
REMARK   79  A    between atoms: _192  and  _194
REMARK   80  A    between atoms: _194  and  _195
REMARK   81  A    between atoms: _194  and  _197
REMARK   82  A    between atoms: _197  and  _198
REMARK   83  A    between atoms: _198  and  _199
REMARK   84  A    between atoms: _202  and  _204
REMARK   85  A    between atoms: _204  and  _205
REMARK   86  A    between atoms: _204  and  _207
REMARK   87  A    between atoms: _207  and  _208
REMARK   88  A    between atoms: _208  and  _209
REMARK   89  A    between atoms: _209  and  _210
REMARK   90  A    between atoms: _219  and  _221
REMARK   91  A    between atoms: _221  and  _222
REMARK   92  A    between atoms: _221  and  _224
REMARK   93  A    between atoms: _224  and  _225
REMARK   94  A    between atoms: _228  and  _230
REMARK   95  A    between atoms: _230  and  _231
REMARK   96  A    between atoms: _230  and  _233
REMARK   97  A    between atoms: _233  and  _234
REMARK   98  A    between atoms: _240  and  _242
REMARK   99  A    between atoms: _242  and  _243
REMARK  100  A    between atoms: _242  and  _245
REMARK  101  A    between atoms: _245  and  _246
REMARK  102  A    between atoms: _251  and  _252
REMARK  103  A    between atoms: _254  and  _256
REMARK  104  A    between atoms: _256  and  _257
REMARK  105  A    between atoms: _256  and  _259
REMARK  106  A    between atoms: _259  and  _260
REMARK  107  A    between atoms: _263  and  _265
REMARK  108  A    between atoms: _265  and  _266
REMARK  109  A    between atoms: _265  and  _268
REMARK  110  A    between atoms: _268  and  _269
REMARK  111  A    between atoms: _272  and  _274
REMARK  112  A    between atoms: _274  and  _275
REMARK  113  A    between atoms: _278  and  _280
REMARK  114  A    between atoms: _280  and  _281
REMARK  115  A    between atoms: _280  and  _283
REMARK  116  A    between atoms: _285  and  _287
REMARK  117  A    between atoms: _287  and  _288
REMARK  118  A    between atoms: _290  and  _292
REMARK  119  A    between atoms: _292  and  _293
REMARK  120  A    between atoms: _292  and  _295
REMARK  121  A    between atoms: _295  and  _296
REMARK  122  A    between atoms: _299  and  _301
REMARK  123  A    between atoms: _301  and  _302
REMARK  124  A    between atoms: _301  and  _304
REMARK  125  A    between atoms: _304  and  _305
REMARK  126  A    between atoms: _311  and  _312
REMARK  127  A    between atoms: _317  and  _319
REMARK  128  A    between atoms: _319  and  _320
REMARK  129  A    between atoms: _319  and  _322
REMARK  130  A    between atoms: _322  and  _323
REMARK  131  A    between atoms: _326  and  _328
REMARK  132  A    between atoms: _328  and  _329
REMARK  133  A    between atoms: _328  and  _331
REMARK  134  A    between atoms: _331  and  _332
REMARK  135  A    between atoms: _337  and  _338
REMARK  136  A    between atoms: _340  and  _342
REMARK  137  A    between atoms: _342  and  _343
REMARK  138  A    between atoms: _342  and  _345
REMARK  139  A    between atoms: _345  and  _346
REMARK  140  A    between atoms: _348  and  _350
REMARK  141  A    between atoms: _350  and  _351
REMARK  142  A    between atoms: _350  and  _353
REMARK  143  A    between atoms: _353  and  _354
REMARK  144  A    between atoms: _357  and  _359
REMARK  145  A    between atoms: _359  and  _360
REMARK  146  A    between atoms: _359  and  _362
REMARK  147  A    between atoms: _362  and  _363
REMARK  148  A    between atoms: _366  and  _368
REMARK  149  A    between atoms: _368  and  _369
REMARK  150  A    between atoms: _368  and  _371
REMARK  151  A    between atoms: _371  and  _372
REMARK  152  A    between atoms: _375  and  _377
REMARK  153  A    between atoms: _377  and  _378
REMARK  154  A    between atoms: _377  and  _380
REMARK  155  A    between atoms: _380  and  _381
REMARK  156  A    between atoms: _384  and  _386
REMARK  157  A    between atoms: _386  and  _387
REMARK  158  A    between atoms: _386  and  _389
REMARK  159  A    between atoms: _392  and  _394
REMARK  160  A    between atoms: _394  and  _395
REMARK  161  A    between atoms: _398  and  _400
REMARK  162  A    between atoms: _400  and  _401
REMARK  163  A    between atoms: _400  and  _403
REMARK  164  A    between atoms: _403  and  _404
REMARK  165  A    between atoms: _407  and  _409
REMARK  166  A    between atoms: _409  and  _410
REMARK  167  A    between atoms: _409  and  _412
REMARK  168  A    between atoms: _412  and  _413
REMARK  169  A    between atoms: _416  and  _418
REMARK  170  A    between atoms: _418  and  _419
REMARK  171  A    between atoms: _418  and  _421
REMARK  172  A    between atoms: _421  and  _422
REMARK  173  A    between atoms: _425  and  _427
REMARK  174  A    between atoms: _427  and  _428
REMARK  175  A    between atoms: _427  and  _430
REMARK  176  A    between atoms: _430  and  _431
REMARK  177  A    between atoms: _431  and  _432
REMARK  178  A    between atoms: _435  and  _437
REMARK  179  A    between atoms: _437  and  _438
REMARK  180  A    between atoms: _437  and  _440
REMARK  181  A    between atoms: _440  and  _441
REMARK  182  A    between atoms: _444  and  _446
REMARK  183  A    between atoms: _446  and  _447
REMARK  184  A    between atoms: _446  and  _449
REMARK  185  A    between atoms: _449  and  _450
REMARK  186  A    between atoms: _453  and  _455
REMARK  187  A    between atoms: _455  and  _456
REMARK  188  A    between atoms: _455  and  _458
REMARK  189  A    between atoms: _458  and  _459
REMARK  190  A    between atoms: _462  and  _464
REMARK  191  A    between atoms: _464  and  _465
REMARK  192  A    between atoms: _464  and  _467
REMARK  193  A    between atoms: _467  and  _468
REMARK  194  A    between atoms: _471  and  _473
REMARK  195  A    between atoms: _473  and  _474
REMARK  196  A    between atoms: _473  and  _476
REMARK  197  A    between atoms: _476  and  _477
REMARK  198  A    between atoms: _477  and  _478
REMARK  199  A    between atoms: _478  and  _479
REMARK  200  A    between atoms: _479  and  _480
REMARK  201  A    between atoms: _484  and  _486
REMARK  202  A    between atoms: _486  and  _487
REMARK  203  A    between atoms: _486  and  _489
REMARK  204  A    between atoms: _489  and  _490
REMARK  205  A    between atoms: _493  and  _495
REMARK  206  A    between atoms: _495  and  _496
REMARK  207  A    between atoms: _495  and  _498
REMARK  208  A    between atoms: _498  and  _499
REMARK  209  A    between atoms: _503  and  _504
REMARK  210  A    between atoms: _509  and  _511
REMARK  211  A    between atoms: _511  and  _512
REMARK  212  A    between atoms: _511  and  _514
REMARK  213  A    between atoms: _516  and  _518
REMARK  214  A    between atoms: _518  and  _519
REMARK  215  A    between atoms: _518  and  _521
REMARK  216  A    between atoms: _521  and  _522
REMARK  217  A    between atoms: _525  and  _527
REMARK  218  A    between atoms: _527  and  _528
REMARK  219  A    between atoms: _527  and  _530
REMARK  220  A    between atoms: _530  and  _531
REMARK  221  A    between atoms: _531  and  _532
REMARK  222  A    between atoms: _537  and  _539
REMARK  223  A    between atoms: _539  and  _540
REMARK  224  A    between atoms: _539  and  _542
REMARK  225  A    between atoms: _542  and  _543
REMARK  226  A    between atoms: _545  and  _547
REMARK  227  A    between atoms: _547  and  _548
REMARK  228  A    between atoms: _547  and  _550
REMARK  229  A    between atoms: _550  and  _551
REMARK  230  A    between atoms: _555  and  _556
REMARK  231  A    between atoms: _561  and  _563
REMARK  232  A    between atoms: _563  and  _564
REMARK  233  A    between atoms: _563  and  _566
REMARK  234  A    between atoms: _566  and  _567
REMARK  235  A    between atoms: _567  and  _568
REMARK                            x       y       z     vdW  Elec       q    Type
REMARK                         _______ _______ _______ _____ _____    ______ ____
ROOT
ATOM      1  C   LYS A   4       9.469  -4.440  18.304  0.00  0.00    +0.241 C 
ATOM      2  N   THR A   5      10.765  -4.334  18.048  0.00  0.00    -0.295 N 
ATOM      3  H   THR A   5      11.403  -5.121  18.282  0.00  0.00    +0.150 HD
ATOM      4  O   LYS A   4       8.669  -3.547  18.035  0.00  0.00    -0.273 OA
ENDROOT
BRANCH   2   5
ATOM      5  CA  THR A   5      11.302  -3.128  17.443  0.00  0.00    +0.176 C 
BRANCH   5   6
ATOM      6  C   THR A   5      11.889  -3.317  16.044  0.00  0.00    +0.243 C 
ATOM      7  N   LEU A   6      12.710  -4.352  15.869  0.00  0.00    -0.297 N 
ATOM      8  H   LEU A   6      12.882  -4.995  16.668  0.00  0.00    +0.150 HD
ATOM      9  O   THR A   5      11.593  -2.533  15.141  0.00  0.00    -0.273 OA
BRANCH   7  10
ATOM     10  CA  LEU A   6      13.380  -4.619  14.592  0.00  0.00    +0.149 C 
BRANCH  10  11
ATOM     11  C   LEU A   6      12.548  -4.534  13.310  0.00  0.00    +0.244 C 
ATOM     12  N   PRO A   7      11.332  -5.111  13.297  0.00  0.00    -0.272 N 
ATOM     13  CD  PRO A   7      10.695  -5.970  14.313  0.00  0.00    +0.094 C 
ATOM     14  CG  PRO A   7       9.713  -6.778  13.481  0.00  0.00    +0.024 C 
ATOM     15  CB  PRO A   7       9.224  -5.757  12.484  0.00  0.00    +0.031 C 
ATOM     16  CA  PRO A   7      10.512  -5.045  12.078  0.00  0.00    +0.152 C 
ATOM     17  O   LEU A   6      13.002  -3.956  12.320  0.00  0.00    -0.273 OA
BRANCH  16  18
ATOM     18  C   PRO A   7      10.247  -3.608  11.626  0.00  0.00    +0.241 C 
ATOM     19  N   CYS A   8      10.011  -2.722  12.585  0.00  0.00    -0.296 N 
ATOM     20  H   CYS A   8      10.016  -3.024  13.580  0.00  0.00    +0.150 HD
ATOM     21  O   PRO A   7      10.252  -3.308  10.430  0.00  0.00    -0.273 OA
BRANCH  19  22
ATOM     22  CA  CYS A   8       9.745  -1.331  12.252  0.00  0.00    +0.160 C 
BRANCH  22  23
ATOM     23  C   CYS A   8      11.003  -0.632  11.744  0.00  0.00    +0.242 C 
ATOM     24  N   LEU A   9      12.144  -0.900  12.381  0.00  0.00    -0.298 N 
ATOM     25  H   LEU A   9      12.136  -1.548  13.195  0.00  0.00    +0.150 HD
ATOM     26  O   CYS A   8      10.937   0.139  10.783  0.00  0.00    -0.273 OA
BRANCH  24  27
ATOM     27  CA  LEU A   9      13.409  -0.296  11.952  0.00  0.00    +0.137 C 
BRANCH  27  28
ATOM     28  C   LEU A   9      13.699  -0.713  10.512  0.00  0.00    +0.227 C 
ATOM     29  O   LEU A   9      14.111   0.099   9.689  0.00  0.00    -0.286 OA
ENDBRANCH  27  28
BRANCH  27  30
ATOM     30  CB  LEU A   9      14.558  -0.753  12.844  0.00  0.00    +0.028 C 
BRANCH  30  31
ATOM     31  CG  LEU A   9      14.514  -0.328  14.316  0.00  0.00    +0.002 C 
ATOM     32  CD2 LEU A   9      15.743  -0.869  15.021  0.00  0.00    +0.000 C 
ATOM     33  CD1 LEU A   9      14.453   1.186  14.419  0.00  0.00    +0.000 C 
ENDBRANCH  30  31
ENDBRANCH  27  30
ENDBRANCH  24  27
ENDBRANCH  22  23
BRANCH  22  34
ATOM     34  CB  CYS A   8       9.181  -0.590  13.459  0.00  0.00    +0.098 C 
ATOM     35  SG  CYS A   8       7.833   0.497  13.008  0.00  0.00    -0.080 S 
ENDBRANCH  22  34
ENDBRANCH  19  22
ENDBRANCH  16  18
ENDBRANCH  10  11
BRANCH  10  36
ATOM     36  CB  LEU A   6      14.113  -5.971  14.642  0.00  0.00    +0.029 C 
BRANCH  36  37
ATOM     37  CG  LEU A   6      15.646  -5.858  14.734  0.00  0.00    +0.002 C 
ATOM     38  CD2 LEU A   6      16.043  -5.193  16.050  0.00  0.00    +0.000 C 
ATOM     39  CD1 LEU A   6      16.282  -7.226  14.639  0.00  0.00    +0.000 C 
ENDBRANCH  36  37
ENDBRANCH  10  36
ENDBRANCH   7  10
ENDBRANCH   5   6
BRANCH   5  40
ATOM     40  CB  THR A   5      12.387  -2.509  18.344  0.00  0.00    +0.137 C 
ATOM     41  CG2 THR A   5      12.875  -1.192  17.759  0.00  0.00    +0.034 C 
BRANCH  40  42
ATOM     42  OG1 THR A   5      11.851  -2.279  19.655  0.00  0.00    -0.382 OA
ATOM     43  HG1 THR A   5      12.551  -1.881  20.231  0.00  0.00    +0.210 HD
ENDBRANCH  40  42
ENDBRANCH   5  40
ENDBRANCH   2   5
BRANCH   1  44
ATOM     44  CA  LYS A   4       9.017  -5.744  18.953  0.00  0.00    +0.149 C 
BRANCH  44  47
ATOM     45  C   LEU A   3      10.147  -5.099  21.010  0.00  0.00    +0.241 C 
ATOM     46  O   LEU A   3       9.853  -3.913  20.872  0.00  0.00    -0.273 OA
ATOM     47  N   LYS A   4       9.808  -6.043  20.138  0.00  0.00    -0.297 N 
ATOM     48  H   LYS A   4      10.116  -7.022  20.307  0.00  0.00    +0.150 HD
BRANCH  45  49
ATOM     49  CA  LEU A   3      10.955  -5.567  22.207  0.00  0.00    +0.149 C 
BRANCH  49  51
ATOM     50  C   LEU A   2      13.261  -5.079  21.619  0.00  0.00    +0.241 C 
ATOM     51  N   LEU A   3      12.185  -4.811  22.351  0.00  0.00    -0.297 N 
ATOM     52  H   LEU A   3      12.226  -4.038  23.046  0.00  0.00    +0.150 HD
ATOM     53  O   LEU A   2      13.291  -5.966  20.770  0.00  0.00    -0.273 OA
BRANCH  50  54
ATOM     54  CA  LEU A   2      14.490  -4.228  21.916  0.00  0.00    +0.149 C 
BRANCH  54  57
ATOM     55  C   LEU A   1      15.146  -3.776  24.236  0.00  0.00    +0.238 C 
ATOM     56  O   LEU A   1      15.091  -2.552  24.092  0.00  0.00    -0.274 OA
ATOM     57  N   LEU A   2      14.905  -4.642  23.260  0.00  0.00    -0.297 N 
ATOM     58  H   LEU A   2      15.015  -5.657  23.457  0.00  0.00    +0.150 HD
BRANCH  55  59
ATOM     59  CA  LEU A   1      15.519  -4.382  25.584  0.00  0.00    +0.145 C 
BRANCH  59  60
ATOM     60  N   LEU A   1      16.712  -3.732  26.107  0.00  0.00    -0.238 NA
ATOM     61  H   LEU A   1      16.638  -2.781  26.522  0.00  0.00    +0.142 HD
ENDBRANCH  59  60
BRANCH  59  62
ATOM     62  CB  LEU A   1      14.349  -4.202  26.547  0.00  0.00    +0.026 C 
BRANCH  62  63
ATOM     63  CG  LEU A   1      14.593  -4.679  27.983  0.00  0.00    +0.002 C 
ATOM     64  CD2 LEU A   1      13.367  -4.405  28.819  0.00  0.00    +0.000 C 
ATOM     65  CD1 LEU A   1      14.927  -6.175  27.987  0.00  0.00    +0.000 C 
ENDBRANCH  62  63
ENDBRANCH  59  62
ENDBRANCH  55  59
ENDBRANCH  54  57
BRANCH  54  66
ATOM     66  CB  LEU A   2      15.587  -4.518  20.888  0.00  0.00    +0.029 C 
BRANCH  66  67
ATOM     67  CG  LEU A   2      16.858  -3.669  20.932  0.00  0.00    +0.002 C 
ATOM     68  CD2 LEU A   2      16.508  -2.212  20.673  0.00  0.00    +0.000 C 
ATOM     69  CD1 LEU A   2      17.849  -4.167  19.884  0.00  0.00    +0.000 C 
ENDBRANCH  66  67
ENDBRANCH  54  66
ENDBRANCH  50  54
ENDBRANCH  49  51
BRANCH  49  70
ATOM     70  CB  LEU A   3      10.112  -5.447  23.474  0.00  0.00    +0.029 C 
BRANCH  70  71
ATOM     71  CG  LEU A   3      10.827  -5.496  24.834  0.00  0.00    +0.002 C 
ATOM     72  CD2 LEU A   3       9.776  -5.735  25.919  0.00  0.00    +0.000 C 
ATOM     73  CD1 LEU A   3      11.885  -6.609  24.880  0.00  0.00    +0.000 C 
ENDBRANCH  70  71
ENDBRANCH  49  70
ENDBRANCH  45  49
ENDBRANCH  44  47
BRANCH  44  74
ATOM     74  CB  LYS A   4       7.536  -5.683  19.343  0.00  0.00    +0.029 C 
BRANCH  74  75
ATOM     75  CG  LYS A   4       7.130  -6.887  20.196  0.00  0.00    +0.000 C 
BRANCH  75  76
ATOM     76  CD  LYS A   4       5.639  -7.193  20.203  0.00  0.00    -0.024 C 
BRANCH  76  77
ATOM     77  CE  LYS A   4       4.862  -6.317  21.162  0.00  0.00    -0.086 C 
BRANCH  77  78
ATOM     78  NZ  LYS A   4       3.490  -6.877  21.374  0.00  0.00    +0.380 N 
ATOM     79  HZ1 LYS A   4       2.966  -6.267  22.034  0.00  0.00    -0.089 HD
ATOM     80  HZ2 LYS A   4       3.566  -7.835  21.771  0.00  0.00    -0.089 HD
ATOM     81  HZ3 LYS A   4       2.988  -6.916  20.464  0.00  0.00    -0.089 HD
ENDBRANCH  77  78
ENDBRANCH  76  77
ENDBRANCH  75  76
ENDBRANCH  74  75
ENDBRANCH  44  74
ENDBRANCH   1  44
TORSDOF 35
REMARK  Name = ../refined-set-2016/3lcv/3lcv_pocket.pdb
REMARK  235 active torsions:
REMARK  status: ('A' for Active; 'I' for Inactive)
REMARK    1  A    between atoms: _1  and  _3
REMARK    2  A    between atoms: _3  and  _4
REMARK    3  A    between atoms: _3  and  _6
REMARK    4  A    between atoms: _9  and  _11
REMARK    5  A    between atoms: _11  and  _12
REMARK    6  A    between atoms: _15  and  _17
REMARK    7  A    between atoms: _17  and  _18
REMARK    8  A    between atoms: _17  and  _20
REMARK    9  A    between atoms: _20  and  _21
REMARK   10  A    between atoms: _24  and  _26
REMARK   11  A    between atoms: _26  and  _27
REMARK   12  A    between atoms: _26  and  _29
REMARK   13  A    between atoms: _29  and  _30
REMARK   14  A    between atoms: _30  and  _31
REMARK   15  A    between atoms: _31  and  _32
REMARK   16  A    between atoms: _41  and  _43
REMARK   17  A    between atoms: _43  and  _44
REMARK   18  A    between atoms: _43  and  _46
REMARK   19  A    between atoms: _46  and  _47
REMARK   20  A    between atoms: _50  and  _52
REMARK   21  A    between atoms: _52  and  _53
REMARK   22  A    between atoms: _55  and  _57
REMARK   23  A    between atoms: _57  and  _58
REMARK   24  A    between atoms: _57  and  _60
REMARK   25  A    between atoms: _60  and  _61
REMARK   26  A    between atoms: _64  and  _66
REMARK   27  A    between atoms: _66  and  _67
REMARK   28  A    between atoms: _66  and  _69
REMARK   29  A    between atoms: _69  and  _70
REMARK   30  A    between atoms: _70  and  _71
REMARK   31  A    between atoms: _74  and  _76
REMARK   32  A    between atoms: _76  and  _77
REMARK   33  A    between atoms: _76  and  _79
REMARK   34  A    between atoms: _79  and  _80
REMARK   35  A    between atoms: _83  and  _85
REMARK   36  A    between atoms: _85  and  _86
REMARK   37  A    between atoms: _85  and  _88
REMARK   38  A    between atoms: _88  and  _89
REMARK   39  A    between atoms: _94  and  _95
REMARK   40  A    between atoms: _97  and  _99
REMARK   41  A    between atoms: _99  and  _100
REMARK   42  A    between atoms: _102  and  _104
REMARK   43  A    between atoms: _104  and  _105
REMARK   44  A    between atoms: _108  and  _110
REMARK   45  A    between atoms: _110  and  _111
REMARK   46  A    between atoms: _110  and  _113
REMARK   47  A    between atoms: _113  and  _114
REMARK   48  A    between atoms: _120  and  _122
REMARK   49  A    between atoms: _122  and  _123
REMARK   50  A    between atoms: _122  and  _125
REMARK   51  A    between atoms: _125  and  _126
REMARK   52  A    between atoms: _129  and  _131
REMARK   53  A    between atoms: _131  and  _132
REMARK   54  A    between atoms: _131  and  _134
REMARK   55  A    between atoms: _134  and  _135
REMARK   56  A    between atoms: _135  and  _136
REMARK   57  A    between atoms: _138  and  _140
REMARK   58  A    between atoms: _140  and  _141
REMARK   59  A    between atoms: _140  and  _143
REMARK   60  A    between atoms: _143  and  _144
REMARK   61  A    between atoms: _149  and  _151
REMARK   62  A    between atoms: _151  and  _152
REMARK   63  A    between atoms: _151  and  _154
REMARK   64  A    between atoms: _154  and  _155
REMARK   65  A    between atoms: _158  and  _160
REMARK   66  A    between atoms: _160  and  _161
REMARK   67  A    between atoms: _160  and  _163
REMARK   68  A    between atoms: _163  and  _164
REMARK   69  A    between atoms: _166  and  _168
REMARK   70  A    between atoms: _168  and  _169
REMARK   71  A    between atoms: _168  and  _171
REMARK   72  A    between atoms: _171  and  _172
REMARK   73  A    between atoms: _175  and  _177
REMARK   74  A    between atoms: _177  and  _178
REMARK   75  A    between atoms: _177  and  _180
REMARK   76  A    between atoms: _180  and  _181
REMARK   77  A    between atoms: _181  and  _182
REMARK   78  A    between atoms: _182  and  _183
REMARK   79  A    between atoms: _192  and  _194
REMARK   80  A    between atoms: _194  and  _195
REMARK   81  A    between atoms: _194  and  _197
REMARK   82  A    between atoms: _197  and  _198
REMARK   83  A    between atoms: _198  and  _199
REMARK   84  A    between atoms: _202  and  _204
REMARK   85  A    between atoms: _204  and  _205
REMARK   86  A    between atoms: _204  and  _207
REMARK   87  A    between atoms: _207  and  _208
REMARK   88  A    between atoms: _208  and  _209
REMARK   89  A    between atoms: _209  and  _210
REMARK   90  A    between atoms: _219  and  _221
REMARK   91  A    between atoms: _221  and  _222
REMARK   92  A    between atoms: _221  and  _224
REMARK   93  A    between atoms: _224  and  _225
REMARK   94  A    between atoms: _228  and  _230
REMARK   95  A    between atoms: _230  and  _231
REMARK   96  A    between atoms: _230  and  _233
REMARK   97  A    between atoms: _233  and  _234
REMARK   98  A    between atoms: _240  and  _242
REMARK   99  A    between atoms: _242  and  _243
REMARK  100  A    between atoms: _242  and  _245
REMARK  101  A    between atoms: _245  and  _246
REMARK  102  A    between atoms: _251  and  _252
REMARK  103  A    between atoms: _254  and  _256
REMARK  104  A    between atoms: _256  and  _257
REMARK  105  A    between atoms: _256  and  _259
REMARK  106  A    between atoms: _259  and  _260
REMARK  107  A    between atoms: _263  and  _265
REMARK  108  A    between atoms: _265  and  _266
REMARK  109  A    between atoms: _265  and  _268
REMARK  110  A    between atoms: _268  and  _269
REMARK  111  A    between atoms: _272  and  _274
REMARK  112  A    between atoms: _274  and  _275
REMARK  113  A    between atoms: _278  and  _280
REMARK  114  A    between atoms: _280  and  _281
REMARK  115  A    between atoms: _280  and  _283
REMARK  116  A    between atoms: _285  and  _287
REMARK  117  A    between atoms: _287  and  _288
REMARK  118  A    between atoms: _290  and  _292
REMARK  119  A    between atoms: _292  and  _293
REMARK  120  A    between atoms: _292  and  _295
REMARK  121  A    between atoms: _295  and  _296
REMARK  122  A    between atoms: _299  and  _301
REMARK  123  A    between atoms: _301  and  _302
REMARK  124  A    between atoms: _301  and  _304
REMARK  125  A    between atoms: _304  and  _305
REMARK  126  A    between atoms: _311  and  _312
REMARK  127  A    between atoms: _317  and  _319
REMARK  128  A    between atoms: _319  and  _320
REMARK  129  A    between atoms: _319  and  _322
REMARK  130  A    between atoms: _322  and  _323
REMARK  131  A    between atoms: _326  and  _328
REMARK  132  A    between atoms: _328  and  _329
REMARK  133  A    between atoms: _328  and  _331
REMARK  134  A    between atoms: _331  and  _332
REMARK  135  A    between atoms: _337  and  _338
REMARK  136  A    between atoms: _340  and  _342
REMARK  137  A    between atoms: _342  and  _343
REMARK  138  A    between atoms: _342  and  _345
REMARK  139  A    between atoms: _345  and  _346
REMARK  140  A    between atoms: _348  and  _350
REMARK  141  A    between atoms: _350  and  _351
REMARK  142  A    between atoms: _350  and  _353
REMARK  143  A    between atoms: _353  and  _354
REMARK  144  A    between atoms: _357  and  _359
REMARK  145  A    between atoms: _359  and  _360
REMARK  146  A    between atoms: _359  and  _362
REMARK  147  A    between atoms: _362  and  _363
REMARK  148  A    between atoms: _366  and  _368
REMARK  149  A    between atoms: _368  and  _369
REMARK  150  A    between atoms: _368  and  _371
REMARK  151  A    between atoms: _371  and  _372
REMARK  152  A    between atoms: _375  and  _377
REMARK  153  A    between atoms: _377  and  _378
REMARK  154  A    between atoms: _377  and  _380
REMARK  155  A    between atoms: _380  and  _381
REMARK  156  A    between atoms: _384  and  _386
REMARK  157  A    between atoms: _386  and  _387
REMARK  158  A    between atoms: _386  and  _389
REMARK  159  A    between atoms: _392  and  _394
REMARK  160  A    between atoms: _394  and  _395
REMARK  161  A    between atoms: _398  and  _400
REMARK  162  A    between atoms: _400  and  _401
REMARK  163  A    between atoms: _400  and  _403
REMARK  164  A    between atoms: _403  and  _404
REMARK  165  A    between atoms: _407  and  _409
REMARK  166  A    between atoms: _409  and  _410
REMARK  167  A    between atoms: _409  and  _412
REMARK  168  A    between atoms: _412  and  _413
REMARK  169  A    between atoms: _416  and  _418
REMARK  170  A    between atoms: _418  and  _419
REMARK  171  A    between atoms: _418  and  _421
REMARK  172  A    between atoms: _421  and  _422
REMARK  173  A    between atoms: _425  and  _427
REMARK  174  A    between atoms: _427  and  _428
REMARK  175  A    between atoms: _427  and  _430
REMARK  176  A    between atoms: _430  and  _431
REMARK  177  A    between atoms: _431  and  _432
REMARK  178  A    between atoms: _435  and  _437
REMARK  179  A    between atoms: _437  and  _438
REMARK  180  A    between atoms: _437  and  _440
REMARK  181  A    between atoms: _440  and  _441
REMARK  182  A    between atoms: _444  and  _446
REMARK  183  A    between atoms: _446  and  _447
REMARK  184  A    between atoms: _446  and  _449
REMARK  185  A    between atoms: _449  and  _450
REMARK  186  A    between atoms: _453  and  _455
REMARK  187  A    between atoms: _455  and  _456
REMARK  188  A    between atoms: _455  and  _458
REMARK  189  A    between atoms: _458  and  _459
REMARK  190  A    between atoms: _462  and  _464
REMARK  191  A    between atoms: _464  and  _465
REMARK  192  A    between atoms: _464  and  _467
REMARK  193  A    between atoms: _467  and  _468
REMARK  194  A    between atoms: _471  and  _473
REMARK  195  A    between atoms: _473  and  _474
REMARK  196  A    between atoms: _473  and  _476
REMARK  197  A    between atoms: _476  and  _477
REMARK  198  A    between atoms: _477  and  _478
REMARK  199  A    between atoms: _478  and  _479
REMARK  200  A    between atoms: _479  and  _480
REMARK  201  A    between atoms: _484  and  _486
REMARK  202  A    between atoms: _486  and  _487
REMARK  203  A    between atoms: _486  and  _489
REMARK  204  A    between atoms: _489  and  _490
REMARK  205  A    between atoms: _493  and  _495
REMARK  206  A    between atoms: _495  and  _496
REMARK  207  A    between atoms: _495  and  _498
REMARK  208  A    between atoms: _498  and  _499
REMARK  209  A    between atoms: _503  and  _504
REMARK  210  A    between atoms: _509  and  _511
REMARK  211  A    between atoms: _511  and  _512
REMARK  212  A    between atoms: _511  and  _514
REMARK  213  A    between atoms: _516  and  _518
REMARK  214  A    between atoms: _518  and  _519
REMARK  215  A    between atoms: _518  and  _521
REMARK  216  A    between atoms: _521  and  _522
REMARK  217  A    between atoms: _525  and  _527
REMARK  218  A    between atoms: _527  and  _528
REMARK  219  A    between atoms: _527  and  _530
REMARK  220  A    between atoms: _530  and  _531
REMARK  221  A    between atoms: _531  and  _532
REMARK  222  A    between atoms: _537  and  _539
REMARK  223  A    between atoms: _539  and  _540
REMARK  224  A    between atoms: _539  and  _542
REMARK  225  A    between atoms: _542  and  _543
REMARK  226  A    between atoms: _545  and  _547
REMARK  227  A    between atoms: _547  and  _548
REMARK  228  A    between atoms: _547  and  _550
REMARK  229  A    between atoms: _550  and  _551
REMARK  230  A    between atoms: _555  and  _556
REMARK  231  A    between atoms: _561  and  _563
REMARK  232  A    between atoms: _563  and  _564
REMARK  233  A    between atoms: _563  and  _566
REMARK  234  A    between atoms: _566  and  _567
REMARK  235  A    between atoms: _567  and  _568
REMARK                            x       y       z     vdW  Elec       q    Type
REMARK                         _______ _______ _______ _____ _____    ______ ____
ROOT
ATOM      1  CB  GLN A   1      12.435   3.331   9.145  0.00  0.00    +0.035 C 
ENDROOT
BRANCH   1   2
ATOM      2  CA  GLN A   1      12.409   2.627   7.787  0.00  0.00    +0.134 C 
BRANCH   2   3
ATOM      3  N   GLN A   1      11.896   1.268   7.938  0.00  0.00    -0.239 NA
ATOM      4  H   GLN A   1      12.040   0.776   8.843  0.00  0.00    +0.142 HD
ENDBRANCH   2   3
BRANCH   2   5
ATOM      5  C   GLN A   1      13.814   2.679   7.208  0.00  0.00    +0.224 C 
ATOM      6  O   GLN A   1      14.184   3.656   6.559  0.00  0.00    -0.287 OA
ENDBRANCH   2   5
ENDBRANCH   1   2
BRANCH   1   7
ATOM      7  CG  GLN A   1      11.227   3.071  10.010  0.00  0.00    +0.087 C 
BRANCH   7   8
ATOM      8  CD  GLN A   1      11.415   3.573  11.428  0.00  0.00    +0.219 C 
ATOM      9  OE1 GLN A   1      10.973   2.936  12.387  0.00  0.00    -0.275 OA
ATOM     10  NE2 GLN A   1      12.061   4.720  11.568  0.00  0.00    -0.329 N 
ATOM     11 HE21 GLN A   1      12.213   5.119  12.516  0.00  0.00    +0.145 HD
ATOM     12 HE22 GLN A   1      12.416   5.222  10.730  0.00  0.00    +0.145 HD
ENDBRANCH   7   8
ENDBRANCH   1   7
TORSDOF 5
REMARK  Name = ../refined-set-2016/3lcv/3lcv_pocket.pdb
REMARK  235 active torsions:
REMARK  status: ('A' for Active; 'I' for Inactive)
REMARK    1  A    between atoms: _1  and  _3
REMARK    2  A    between atoms: _3  and  _4
REMARK    3  A    between atoms: _3  and  _6
REMARK    4  A    between atoms: _9  and  _11
REMARK    5  A    between atoms: _11  and  _12
REMARK    6  A    between atoms: _15  and  _17
REMARK    7  A    between atoms: _17  and  _18
REMARK    8  A    between atoms: _17  and  _20
REMARK    9  A    between atoms: _20  and  _21
REMARK   10  A    between atoms: _24  and  _26
REMARK   11  A    between atoms: _26  and  _27
REMARK   12  A    between atoms: _26  and  _29
REMARK   13  A    between atoms: _29  and  _30
REMARK   14  A    between atoms: _30  and  _31
REMARK   15  A    between atoms: _31  and  _32
REMARK   16  A    between atoms: _41  and  _43
REMARK   17  A    between atoms: _43  and  _44
REMARK   18  A    between atoms: _43  and  _46
REMARK   19  A    between atoms: _46  and  _47
REMARK   20  A    between atoms: _50  and  _52
REMARK   21  A    between atoms: _52  and  _53
REMARK   22  A    between atoms: _55  and  _57
REMARK   23  A    between atoms: _57  and  _58
REMARK   24  A    between atoms: _57  and  _60
REMARK   25  A    between atoms: _60  and  _61
REMARK   26  A    between atoms: _64  and  _66
REMARK   27  A    between atoms: _66  and  _67
REMARK   28  A    between atoms: _66  and  _69
REMARK   29  A    between atoms: _69  and  _70
REMARK   30  A    between atoms: _70  and  _71
REMARK   31  A    between atoms: _74  and  _76
REMARK   32  A    between atoms: _76  and  _77
REMARK   33  A    between atoms: _76  and  _79
REMARK   34  A    between atoms: _79  and  _80
REMARK   35  A    between atoms: _83  and  _85
REMARK   36  A    between atoms: _85  and  _86
REMARK   37  A    between atoms: _85  and  _88
REMARK   38  A    between atoms: _88  and  _89
REMARK   39  A    between atoms: _94  and  _95
REMARK   40  A    between atoms: _97  and  _99
REMARK   41  A    between atoms: _99  and  _100
REMARK   42  A    between atoms: _102  and  _104
REMARK   43  A    between atoms: _104  and  _105
REMARK   44  A    between atoms: _108  and  _110
REMARK   45  A    between atoms: _110  and  _111
REMARK   46  A    between atoms: _110  and  _113
REMARK   47  A    between atoms: _113  and  _114
REMARK   48  A    between atoms: _120  and  _122
REMARK   49  A    between atoms: _122  and  _123
REMARK   50  A    between atoms: _122  and  _125
REMARK   51  A    between atoms: _125  and  _126
REMARK   52  A    between atoms: _129  and  _131
REMARK   53  A    between atoms: _131  and  _132
REMARK   54  A    between atoms: _131  and  _134
REMARK   55  A    between atoms: _134  and  _135
REMARK   56  A    between atoms: _135  and  _136
REMARK   57  A    between atoms: _138  and  _140
REMARK   58  A    between atoms: _140  and  _141
REMARK   59  A    between atoms: _140  and  _143
REMARK   60  A    between atoms: _143  and  _144
REMARK   61  A    between atoms: _149  and  _151
REMARK   62  A    between atoms: _151  and  _152
REMARK   63  A    between atoms: _151  and  _154
REMARK   64  A    between atoms: _154  and  _155
REMARK   65  A    between atoms: _158  and  _160
REMARK   66  A    between atoms: _160  and  _161
REMARK   67  A    between atoms: _160  and  _163
REMARK   68  A    between atoms: _163  and  _164
REMARK   69  A    between atoms: _166  and  _168
REMARK   70  A    between atoms: _168  and  _169
REMARK   71  A    between atoms: _168  and  _171
REMARK   72  A    between atoms: _171  and  _172
REMARK   73  A    between atoms: _175  and  _177
REMARK   74  A    between atoms: _177  and  _178
REMARK   75  A    between atoms: _177  and  _180
REMARK   76  A    between atoms: _180  and  _181
REMARK   77  A    between atoms: _181  and  _182
REMARK   78  A    between atoms: _182  and  _183
REMARK   79  A    between atoms: _192  and  _194
REMARK   80  A    between atoms: _194  and  _195
REMARK   81  A    between atoms: _194  and  _197
REMARK   82  A    between atoms: _197  and  _198
REMARK   83  A    between atoms: _198  and  _199
REMARK   84  A    between atoms: _202  and  _204
REMARK   85  A    between atoms: _204  and  _205
REMARK   86  A    between atoms: _204  and  _207
REMARK   87  A    between atoms: _207  and  _208
REMARK   88  A    between atoms: _208  and  _209
REMARK   89  A    between atoms: _209  and  _210
REMARK   90  A    between atoms: _219  and  _221
REMARK   91  A    between atoms: _221  and  _222
REMARK   92  A    between atoms: _221  and  _224
REMARK   93  A    between atoms: _224  and  _225
REMARK   94  A    between atoms: _228  and  _230
REMARK   95  A    between atoms: _230  and  _231
REMARK   96  A    between atoms: _230  and  _233
REMARK   97  A    between atoms: _233  and  _234
REMARK   98  A    between atoms: _240  and  _242
REMARK   99  A    between atoms: _242  and  _243
REMARK  100  A    between atoms: _242  and  _245
REMARK  101  A    between atoms: _245  and  _246
REMARK  102  A    between atoms: _251  and  _252
REMARK  103  A    between atoms: _254  and  _256
REMARK  104  A    between atoms: _256  and  _257
REMARK  105  A    between atoms: _256  and  _259
REMARK  106  A    between atoms: _259  and  _260
REMARK  107  A    between atoms: _263  and  _265
REMARK  108  A    between atoms: _265  and  _266
REMARK  109  A    between atoms: _265  and  _268
REMARK  110  A    between atoms: _268  and  _269
REMARK  111  A    between atoms: _272  and  _274
REMARK  112  A    between atoms: _274  and  _275
REMARK  113  A    between atoms: _278  and  _280
REMARK  114  A    between atoms: _280  and  _281
REMARK  115  A    between atoms: _280  and  _283
REMARK  116  A    between atoms: _285  and  _287
REMARK  117  A    between atoms: _287  and  _288
REMARK  118  A    between atoms: _290  and  _292
REMARK  119  A    between atoms: _292  and  _293
REMARK  120  A    between atoms: _292  and  _295
REMARK  121  A    between atoms: _295  and  _296
REMARK  122  A    between atoms: _299  and  _301
REMARK  123  A    between atoms: _301  and  _302
REMARK  124  A    between atoms: _301  and  _304
REMARK  125  A    between atoms: _304  and  _305
REMARK  126  A    between atoms: _311  and  _312
REMARK  127  A    between atoms: _317  and  _319
REMARK  128  A    between atoms: _319  and  _320
REMARK  129  A    between atoms: _319  and  _322
REMARK  130  A    between atoms: _322  and  _323
REMARK  131  A    between atoms: _326  and  _328
REMARK  132  A    between atoms: _328  and  _329
REMARK  133  A    between atoms: _328  and  _331
REMARK  134  A    between atoms: _331  and  _332
REMARK  135  A    between atoms: _337  and  _338
REMARK  136  A    between atoms: _340  and  _342
REMARK  137  A    between atoms: _342  and  _343
REMARK  138  A    between atoms: _342  and  _345
REMARK  139  A    between atoms: _345  and  _346
REMARK  140  A    between atoms: _348  and  _350
REMARK  141  A    between atoms: _350  and  _351
REMARK  142  A    between atoms: _350  and  _353
REMARK  143  A    between atoms: _353  and  _354
REMARK  144  A    between atoms: _357  and  _359
REMARK  145  A    between atoms: _359  and  _360
REMARK  146  A    between atoms: _359  and  _362
REMARK  147  A    between atoms: _362  and  _363
REMARK  148  A    between atoms: _366  and  _368
REMARK  149  A    between atoms: _368  and  _369
REMARK  150  A    between atoms: _368  and  _371
REMARK  151  A    between atoms: _371  and  _372
REMARK  152  A    between atoms: _375  and  _377
REMARK  153  A    between atoms: _377  and  _378
REMARK  154  A    between atoms: _377  and  _380
REMARK  155  A    between atoms: _380  and  _381
REMARK  156  A    between atoms: _384  and  _386
REMARK  157  A    between atoms: _386  and  _387
REMARK  158  A    between atoms: _386  and  _389
REMARK  159  A    between atoms: _392  and  _394
REMARK  160  A    between atoms: _394  and  _395
REMARK  161  A    between atoms: _398  and  _400
REMARK  162  A    between atoms: _400  and  _401
REMARK  163  A    between atoms: _400  and  _403
REMARK  164  A    between atoms: _403  and  _404
REMARK  165  A    between atoms: _407  and  _409
REMARK  166  A    between atoms: _409  and  _410
REMARK  167  A    between atoms: _409  and  _412
REMARK  168  A    between atoms: _412  and  _413
REMARK  169  A    between atoms: _416  and  _418
REMARK  170  A    between atoms: _418  and  _419
REMARK  171  A    between atoms: _418  and  _421
REMARK  172  A    between atoms: _421  and  _422
REMARK  173  A    between atoms: _425  and  _427
REMARK  174  A    between atoms: _427  and  _428
REMARK  175  A    between atoms: _427  and  _430
REMARK  176  A    between atoms: _430  and  _431
REMARK  177  A    between atoms: _431  and  _432
REMARK  178  A    between atoms: _435  and  _437
REMARK  179  A    between atoms: _437  and  _438
REMARK  180  A    between atoms: _437  and  _440
REMARK  181  A    between atoms: _440  and  _441
REMARK  182  A    between atoms: _444  and  _446
REMARK  183  A    between atoms: _446  and  _447
REMARK  184  A    between atoms: _446  and  _449
REMARK  185  A    between atoms: _449  and  _450
REMARK  186  A    between atoms: _453  and  _455
REMARK  187  A    between atoms: _455  and  _456
REMARK  188  A    between atoms: _455  and  _458
REMARK  189  A    between atoms: _458  and  _459
REMARK  190  A    between atoms: _462  and  _464
REMARK  191  A    between atoms: _464  and  _465
REMARK  192  A    between atoms: _464  and  _467
REMARK  193  A    between atoms: _467  and  _468
REMARK  194  A    between atoms: _471  and  _473
REMARK  195  A    between atoms: _473  and  _474
REMARK  196  A    between atoms: _473  and  _476
REMARK  197  A    between atoms: _476  and  _477
REMARK  198  A    between atoms: _477  and  _478
REMARK  199  A    between atoms: _478  and  _479
REMARK  200  A    between atoms: _479  and  _480
REMARK  201  A    between atoms: _484  and  _486
REMARK  202  A    between atoms: _486  and  _487
REMARK  203  A    between atoms: _486  and  _489
REMARK  204  A    between atoms: _489  and  _490
REMARK  205  A    between atoms: _493  and  _495
REMARK  206  A    between atoms: _495  and  _496
REMARK  207  A    between atoms: _495  and  _498
REMARK  208  A    between atoms: _498  and  _499
REMARK  209  A    between atoms: _503  and  _504
REMARK  210  A    between atoms: _509  and  _511
REMARK  211  A    between atoms: _511  and  _512
REMARK  212  A    between atoms: _511  and  _514
REMARK  213  A    between atoms: _516  and  _518
REMARK  214  A    between atoms: _518  and  _519
REMARK  215  A    between atoms: _518  and  _521
REMARK  216  A    between atoms: _521  and  _522
REMARK  217  A    between atoms: _525  and  _527
REMARK  218  A    between atoms: _527  and  _528
REMARK  219  A    between atoms: _527  and  _530
REMARK  220  A    between atoms: _530  and  _531
REMARK  221  A    between atoms: _531  and  _532
REMARK  222  A    between atoms: _537  and  _539
REMARK  223  A    between atoms: _539  and  _540
REMARK  224  A    between atoms: _539  and  _542
REMARK  225  A    between atoms: _542  and  _543
REMARK  226  A    between atoms: _545  and  _547
REMARK  227  A    between atoms: _547  and  _548
REMARK  228  A    between atoms: _547  and  _550
REMARK  229  A    between atoms: _550  and  _551
REMARK  230  A    between atoms: _555  and  _556
REMARK  231  A    between atoms: _561  and  _563
REMARK  232  A    between atoms: _563  and  _564
REMARK  233  A    between atoms: _563  and  _566
REMARK  234  A    between atoms: _566  and  _567
REMARK  235  A    between atoms: _567  and  _568
REMARK                            x       y       z     vdW  Elec       q    Type
REMARK                         _______ _______ _______ _____ _____    ______ ____
ROOT
ATOM      1  CA  SER A   1      19.333  -1.150  10.560  0.00  0.00    +0.163 C 
ENDROOT
BRANCH   1   2
ATOM      2  N   SER A   1      19.090  -1.896   9.328  0.00  0.00    -0.237 NA
ATOM      3  H   SER A   1      18.301  -1.618   8.710  0.00  0.00    +0.142 HD
ENDBRANCH   1   2
BRANCH   1   4
ATOM      4  C   SER A   1      19.165  -2.003  11.814  0.00  0.00    +0.227 C 
ATOM      5  O   SER A   1      19.796  -1.739  12.841  0.00  0.00    -0.287 OA
ENDBRANCH   1   4
BRANCH   1   6
ATOM      6  CB  SER A   1      18.393   0.050  10.638  0.00  0.00    +0.162 C 
BRANCH   6   7
ATOM      7  OG  SER A   1      17.040  -0.365  10.651  0.00  0.00    -0.380 OA
ATOM      8  H   SER A   1      16.843  -0.870   9.823  0.00  0.00    +0.211 HD
ENDBRANCH   6   7
ENDBRANCH   1   6
TORSDOF 4
REMARK  Name = ../refined-set-2016/3lcv/3lcv_pocket.pdb
REMARK  235 active torsions:
REMARK  status: ('A' for Active; 'I' for Inactive)
REMARK    1  A    between atoms: _1  and  _3
REMARK    2  A    between atoms: _3  and  _4
REMARK    3  A    between atoms: _3  and  _6
REMARK    4  A    between atoms: _9  and  _11
REMARK    5  A    between atoms: _11  and  _12
REMARK    6  A    between atoms: _15  and  _17
REMARK    7  A    between atoms: _17  and  _18
REMARK    8  A    between atoms: _17  and  _20
REMARK    9  A    between atoms: _20  and  _21
REMARK   10  A    between atoms: _24  and  _26
REMARK   11  A    between atoms: _26  and  _27
REMARK   12  A    between atoms: _26  and  _29
REMARK   13  A    between atoms: _29  and  _30
REMARK   14  A    between atoms: _30  and  _31
REMARK   15  A    between atoms: _31  and  _32
REMARK   16  A    between atoms: _41  and  _43
REMARK   17  A    between atoms: _43  and  _44
REMARK   18  A    between atoms: _43  and  _46
REMARK   19  A    between atoms: _46  and  _47
REMARK   20  A    between atoms: _50  and  _52
REMARK   21  A    between atoms: _52  and  _53
REMARK   22  A    between atoms: _55  and  _57
REMARK   23  A    between atoms: _57  and  _58
REMARK   24  A    between atoms: _57  and  _60
REMARK   25  A    between atoms: _60  and  _61
REMARK   26  A    between atoms: _64  and  _66
REMARK   27  A    between atoms: _66  and  _67
REMARK   28  A    between atoms: _66  and  _69
REMARK   29  A    between atoms: _69  and  _70
REMARK   30  A    between atoms: _70  and  _71
REMARK   31  A    between atoms: _74  and  _76
REMARK   32  A    between atoms: _76  and  _77
REMARK   33  A    between atoms: _76  and  _79
REMARK   34  A    between atoms: _79  and  _80
REMARK   35  A    between atoms: _83  and  _85
REMARK   36  A    between atoms: _85  and  _86
REMARK   37  A    between atoms: _85  and  _88
REMARK   38  A    between atoms: _88  and  _89
REMARK   39  A    between atoms: _94  and  _95
REMARK   40  A    between atoms: _97  and  _99
REMARK   41  A    between atoms: _99  and  _100
REMARK   42  A    between atoms: _102  and  _104
REMARK   43  A    between atoms: _104  and  _105
REMARK   44  A    between atoms: _108  and  _110
REMARK   45  A    between atoms: _110  and  _111
REMARK   46  A    between atoms: _110  and  _113
REMARK   47  A    between atoms: _113  and  _114
REMARK   48  A    between atoms: _120  and  _122
REMARK   49  A    between atoms: _122  and  _123
REMARK   50  A    between atoms: _122  and  _125
REMARK   51  A    between atoms: _125  and  _126
REMARK   52  A    between atoms: _129  and  _131
REMARK   53  A    between atoms: _131  and  _132
REMARK   54  A    between atoms: _131  and  _134
REMARK   55  A    between atoms: _134  and  _135
REMARK   56  A    between atoms: _135  and  _136
REMARK   57  A    between atoms: _138  and  _140
REMARK   58  A    between atoms: _140  and  _141
REMARK   59  A    between atoms: _140  and  _143
REMARK   60  A    between atoms: _143  and  _144
REMARK   61  A    between atoms: _149  and  _151
REMARK   62  A    between atoms: _151  and  _152
REMARK   63  A    between atoms: _151  and  _154
REMARK   64  A    between atoms: _154  and  _155
REMARK   65  A    between atoms: _158  and  _160
REMARK   66  A    between atoms: _160  and  _161
REMARK   67  A    between atoms: _160  and  _163
REMARK   68  A    between atoms: _163  and  _164
REMARK   69  A    between atoms: _166  and  _168
REMARK   70  A    between atoms: _168  and  _169
REMARK   71  A    between atoms: _168  and  _171
REMARK   72  A    between atoms: _171  and  _172
REMARK   73  A    between atoms: _175  and  _177
REMARK   74  A    between atoms: _177  and  _178
REMARK   75  A    between atoms: _177  and  _180
REMARK   76  A    between atoms: _180  and  _181
REMARK   77  A    between atoms: _181  and  _182
REMARK   78  A    between atoms: _182  and  _183
REMARK   79  A    between atoms: _192  and  _194
REMARK   80  A    between atoms: _194  and  _195
REMARK   81  A    between atoms: _194  and  _197
REMARK   82  A    between atoms: _197  and  _198
REMARK   83  A    between atoms: _198  and  _199
REMARK   84  A    between atoms: _202  and  _204
REMARK   85  A    between atoms: _204  and  _205
REMARK   86  A    between atoms: _204  and  _207
REMARK   87  A    between atoms: _207  and  _208
REMARK   88  A    between atoms: _208  and  _209
REMARK   89  A    between atoms: _209  and  _210
REMARK   90  A    between atoms: _219  and  _221
REMARK   91  A    between atoms: _221  and  _222
REMARK   92  A    between atoms: _221  and  _224
REMARK   93  A    between atoms: _224  and  _225
REMARK   94  A    between atoms: _228  and  _230
REMARK   95  A    between atoms: _230  and  _231
REMARK   96  A    between atoms: _230  and  _233
REMARK   97  A    between atoms: _233  and  _234
REMARK   98  A    between atoms: _240  and  _242
REMARK   99  A    between atoms: _242  and  _243
REMARK  100  A    between atoms: _242  and  _245
REMARK  101  A    between atoms: _245  and  _246
REMARK  102  A    between atoms: _251  and  _252
REMARK  103  A    between atoms: _254  and  _256
REMARK  104  A    between atoms: _256  and  _257
REMARK  105  A    between atoms: _256  and  _259
REMARK  106  A    between atoms: _259  and  _260
REMARK  107  A    between atoms: _263  and  _265
REMARK  108  A    between atoms: _265  and  _266
REMARK  109  A    between atoms: _265  and  _268
REMARK  110  A    between atoms: _268  and  _269
REMARK  111  A    between atoms: _272  and  _274
REMARK  112  A    between atoms: _274  and  _275
REMARK  113  A    between atoms: _278  and  _280
REMARK  114  A    between atoms: _280  and  _281
REMARK  115  A    between atoms: _280  and  _283
REMARK  116  A    between atoms: _285  and  _287
REMARK  117  A    between atoms: _287  and  _288
REMARK  118  A    between atoms: _290  and  _292
REMARK  119  A    between atoms: _292  and  _293
REMARK  120  A    between atoms: _292  and  _295
REMARK  121  A    between atoms: _295  and  _296
REMARK  122  A    between atoms: _299  and  _301
REMARK  123  A    between atoms: _301  and  _302
REMARK  124  A    between atoms: _301  and  _304
REMARK  125  A    between atoms: _304  and  _305
REMARK  126  A    between atoms: _311  and  _312
REMARK  127  A    between atoms: _317  and  _319
REMARK  128  A    between atoms: _319  and  _320
REMARK  129  A    between atoms: _319  and  _322
REMARK  130  A    between atoms: _322  and  _323
REMARK  131  A    between atoms: _326  and  _328
REMARK  132  A    between atoms: _328  and  _329
REMARK  133  A    between atoms: _328  and  _331
REMARK  134  A    between atoms: _331  and  _332
REMARK  135  A    between atoms: _337  and  _338
REMARK  136  A    between atoms: _340  and  _342
REMARK  137  A    between atoms: _342  and  _343
REMARK  138  A    between atoms: _342  and  _345
REMARK  139  A    between atoms: _345  and  _346
REMARK  140  A    between atoms: _348  and  _350
REMARK  141  A    between atoms: _350  and  _351
REMARK  142  A    between atoms: _350  and  _353
REMARK  143  A    between atoms: _353  and  _354
REMARK  144  A    between atoms: _357  and  _359
REMARK  145  A    between atoms: _359  and  _360
REMARK  146  A    between atoms: _359  and  _362
REMARK  147  A    between atoms: _362  and  _363
REMARK  148  A    between atoms: _366  and  _368
REMARK  149  A    between atoms: _368  and  _369
REMARK  150  A    between atoms: _368  and  _371
REMARK  151  A    between atoms: _371  and  _372
REMARK  152  A    between atoms: _375  and  _377
REMARK  153  A    between atoms: _377  and  _378
REMARK  154  A    between atoms: _377  and  _380
REMARK  155  A    between atoms: _380  and  _381
REMARK  156  A    between atoms: _384  and  _386
REMARK  157  A    between atoms: _386  and  _387
REMARK  158  A    between atoms: _386  and  _389
REMARK  159  A    between atoms: _392  and  _394
REMARK  160  A    between atoms: _394  and  _395
REMARK  161  A    between atoms: _398  and  _400
REMARK  162  A    between atoms: _400  and  _401
REMARK  163  A    between atoms: _400  and  _403
REMARK  164  A    between atoms: _403  and  _404
REMARK  165  A    between atoms: _407  and  _409
REMARK  166  A    between atoms: _409  and  _410
REMARK  167  A    between atoms: _409  and  _412
REMARK  168  A    between atoms: _412  and  _413
REMARK  169  A    between atoms: _416  and  _418
REMARK  170  A    between atoms: _418  and  _419
REMARK  171  A    between atoms: _418  and  _421
REMARK  172  A    between atoms: _421  and  _422
REMARK  173  A    between atoms: _425  and  _427
REMARK  174  A    between atoms: _427  and  _428
REMARK  175  A    between atoms: _427  and  _430
REMARK  176  A    between atoms: _430  and  _431
REMARK  177  A    between atoms: _431  and  _432
REMARK  178  A    between atoms: _435  and  _437
REMARK  179  A    between atoms: _437  and  _438
REMARK  180  A    between atoms: _437  and  _440
REMARK  181  A    between atoms: _440  and  _441
REMARK  182  A    between atoms: _444  and  _446
REMARK  183  A    between atoms: _446  and  _447
REMARK  184  A    between atoms: _446  and  _449
REMARK  185  A    between atoms: _449  and  _450
REMARK  186  A    between atoms: _453  and  _455
REMARK  187  A    between atoms: _455  and  _456
REMARK  188  A    between atoms: _455  and  _458
REMARK  189  A    between atoms: _458  and  _459
REMARK  190  A    between atoms: _462  and  _464
REMARK  191  A    between atoms: _464  and  _465
REMARK  192  A    between atoms: _464  and  _467
REMARK  193  A    between atoms: _467  and  _468
REMARK  194  A    between atoms: _471  and  _473
REMARK  195  A    between atoms: _473  and  _474
REMARK  196  A    between atoms: _473  and  _476
REMARK  197  A    between atoms: _476  and  _477
REMARK  198  A    between atoms: _477  and  _478
REMARK  199  A    between atoms: _478  and  _479
REMARK  200  A    between atoms: _479  and  _480
REMARK  201  A    between atoms: _484  and  _486
REMARK  202  A    between atoms: _486  and  _487
REMARK  203  A    between atoms: _486  and  _489
REMARK  204  A    between atoms: _489  and  _490
REMARK  205  A    between atoms: _493  and  _495
REMARK  206  A    between atoms: _495  and  _496
REMARK  207  A    between atoms: _495  and  _498
REMARK  208  A    between atoms: _498  and  _499
REMARK  209  A    between atoms: _503  and  _504
REMARK  210  A    between atoms: _509  and  _511
REMARK  211  A    between atoms: _511  and  _512
REMARK  212  A    between atoms: _511  and  _514
REMARK  213  A    between atoms: _516  and  _518
REMARK  214  A    between atoms: _518  and  _519
REMARK  215  A    between atoms: _518  and  _521
REMARK  216  A    between atoms: _521  and  _522
REMARK  217  A    between atoms: _525  and  _527
REMARK  218  A    between atoms: _527  and  _528
REMARK  219  A    between atoms: _527  and  _530
REMARK  220  A    between atoms: _530  and  _531
REMARK  221  A    between atoms: _531  and  _532
REMARK  222  A    between atoms: _537  and  _539
REMARK  223  A    between atoms: _539  and  _540
REMARK  224  A    between atoms: _539  and  _542
REMARK  225  A    between atoms: _542  and  _543
REMARK  226  A    between atoms: _545  and  _547
REMARK  227  A    between atoms: _547  and  _548
REMARK  228  A    between atoms: _547  and  _550
REMARK  229  A    between atoms: _550  and  _551
REMARK  230  A    between atoms: _555  and  _556
REMARK  231  A    between atoms: _561  and  _563
REMARK  232  A    between atoms: _563  and  _564
REMARK  233  A    between atoms: _563  and  _566
REMARK  234  A    between atoms: _566  and  _567
REMARK  235  A    between atoms: _567  and  _568
REMARK                            x       y       z     vdW  Elec       q    Type
REMARK                         _______ _______ _______ _____ _____    ______ ____
ROOT
ATOM      1  CA  THR A   1      11.462  -9.856  20.331  0.00  0.00    +0.160 C 
ENDROOT
BRANCH   1   2
ATOM      2  N   THR A   1      12.680  -9.072  20.496  0.00  0.00    -0.237 NA
ATOM      3  H   THR A   1      12.637  -8.033  20.499  0.00  0.00    +0.142 HD
ENDBRANCH   1   2
BRANCH   1   4
ATOM      4  CB  THR A   1      10.480  -9.681  21.518  0.00  0.00    +0.134 C 
ATOM      5  CG2 THR A   1      11.215  -9.814  22.851  0.00  0.00    +0.034 C 
BRANCH   4   6
ATOM      6  OG1 THR A   1       9.854  -8.396  21.448  0.00  0.00    -0.383 OA
ATOM      7  HG1 THR A   1       9.229  -8.293  22.209  0.00  0.00    +0.210 HD
ENDBRANCH   4   6
ENDBRANCH   1   4
BRANCH   1   8
ATOM      8  C   THR A   1      10.737  -9.503  19.041  0.00  0.00    +0.227 C 
ATOM      9  O   THR A   1      10.971  -8.453  18.442  0.00  0.00    -0.287 OA
ENDBRANCH   1   8
TORSDOF 4
REMARK  Name = ../refined-set-2016/3lcv/3lcv_pocket.pdb
REMARK  235 active torsions:
REMARK  status: ('A' for Active; 'I' for Inactive)
REMARK    1  A    between atoms: _1  and  _3
REMARK    2  A    between atoms: _3  and  _4
REMARK    3  A    between atoms: _3  and  _6
REMARK    4  A    between atoms: _9  and  _11
REMARK    5  A    between atoms: _11  and  _12
REMARK    6  A    between atoms: _15  and  _17
REMARK    7  A    between atoms: _17  and  _18
REMARK    8  A    between atoms: _17  and  _20
REMARK    9  A    between atoms: _20  and  _21
REMARK   10  A    between atoms: _24  and  _26
REMARK   11  A    between atoms: _26  and  _27
REMARK   12  A    between atoms: _26  and  _29
REMARK   13  A    between atoms: _29  and  _30
REMARK   14  A    between atoms: _30  and  _31
REMARK   15  A    between atoms: _31  and  _32
REMARK   16  A    between atoms: _41  and  _43
REMARK   17  A    between atoms: _43  and  _44
REMARK   18  A    between atoms: _43  and  _46
REMARK   19  A    between atoms: _46  and  _47
REMARK   20  A    between atoms: _50  and  _52
REMARK   21  A    between atoms: _52  and  _53
REMARK   22  A    between atoms: _55  and  _57
REMARK   23  A    between atoms: _57  and  _58
REMARK   24  A    between atoms: _57  and  _60
REMARK   25  A    between atoms: _60  and  _61
REMARK   26  A    between atoms: _64  and  _66
REMARK   27  A    between atoms: _66  and  _67
REMARK   28  A    between atoms: _66  and  _69
REMARK   29  A    between atoms: _69  and  _70
REMARK   30  A    between atoms: _70  and  _71
REMARK   31  A    between atoms: _74  and  _76
REMARK   32  A    between atoms: _76  and  _77
REMARK   33  A    between atoms: _76  and  _79
REMARK   34  A    between atoms: _79  and  _80
REMARK   35  A    between atoms: _83  and  _85
REMARK   36  A    between atoms: _85  and  _86
REMARK   37  A    between atoms: _85  and  _88
REMARK   38  A    between atoms: _88  and  _89
REMARK   39  A    between atoms: _94  and  _95
REMARK   40  A    between atoms: _97  and  _99
REMARK   41  A    between atoms: _99  and  _100
REMARK   42  A    between atoms: _102  and  _104
REMARK   43  A    between atoms: _104  and  _105
REMARK   44  A    between atoms: _108  and  _110
REMARK   45  A    between atoms: _110  and  _111
REMARK   46  A    between atoms: _110  and  _113
REMARK   47  A    between atoms: _113  and  _114
REMARK   48  A    between atoms: _120  and  _122
REMARK   49  A    between atoms: _122  and  _123
REMARK   50  A    between atoms: _122  and  _125
REMARK   51  A    between atoms: _125  and  _126
REMARK   52  A    between atoms: _129  and  _131
REMARK   53  A    between atoms: _131  and  _132
REMARK   54  A    between atoms: _131  and  _134
REMARK   55  A    between atoms: _134  and  _135
REMARK   56  A    between atoms: _135  and  _136
REMARK   57  A    between atoms: _138  and  _140
REMARK   58  A    between atoms: _140  and  _141
REMARK   59  A    between atoms: _140  and  _143
REMARK   60  A    between atoms: _143  and  _144
REMARK   61  A    between atoms: _149  and  _151
REMARK   62  A    between atoms: _151  and  _152
REMARK   63  A    between atoms: _151  and  _154
REMARK   64  A    between atoms: _154  and  _155
REMARK   65  A    between atoms: _158  and  _160
REMARK   66  A    between atoms: _160  and  _161
REMARK   67  A    between atoms: _160  and  _163
REMARK   68  A    between atoms: _163  and  _164
REMARK   69  A    between atoms: _166  and  _168
REMARK   70  A    between atoms: _168  and  _169
REMARK   71  A    between atoms: _168  and  _171
REMARK   72  A    between atoms: _171  and  _172
REMARK   73  A    between atoms: _175  and  _177
REMARK   74  A    between atoms: _177  and  _178
REMARK   75  A    between atoms: _177  and  _180
REMARK   76  A    between atoms: _180  and  _181
REMARK   77  A    between atoms: _181  and  _182
REMARK   78  A    between atoms: _182  and  _183
REMARK   79  A    between atoms: _192  and  _194
REMARK   80  A    between atoms: _194  and  _195
REMARK   81  A    between atoms: _194  and  _197
REMARK   82  A    between atoms: _197  and  _198
REMARK   83  A    between atoms: _198  and  _199
REMARK   84  A    between atoms: _202  and  _204
REMARK   85  A    between atoms: _204  and  _205
REMARK   86  A    between atoms: _204  and  _207
REMARK   87  A    between atoms: _207  and  _208
REMARK   88  A    between atoms: _208  and  _209
REMARK   89  A    between atoms: _209  and  _210
REMARK   90  A    between atoms: _219  and  _221
REMARK   91  A    between atoms: _221  and  _222
REMARK   92  A    between atoms: _221  and  _224
REMARK   93  A    between atoms: _224  and  _225
REMARK   94  A    between atoms: _228  and  _230
REMARK   95  A    between atoms: _230  and  _231
REMARK   96  A    between atoms: _230  and  _233
REMARK   97  A    between atoms: _233  and  _234
REMARK   98  A    between atoms: _240  and  _242
REMARK   99  A    between atoms: _242  and  _243
REMARK  100  A    between atoms: _242  and  _245
REMARK  101  A    between atoms: _245  and  _246
REMARK  102  A    between atoms: _251  and  _252
REMARK  103  A    between atoms: _254  and  _256
REMARK  104  A    between atoms: _256  and  _257
REMARK  105  A    between atoms: _256  and  _259
REMARK  106  A    between atoms: _259  and  _260
REMARK  107  A    between atoms: _263  and  _265
REMARK  108  A    between atoms: _265  and  _266
REMARK  109  A    between atoms: _265  and  _268
REMARK  110  A    between atoms: _268  and  _269
REMARK  111  A    between atoms: _272  and  _274
REMARK  112  A    between atoms: _274  and  _275
REMARK  113  A    between atoms: _278  and  _280
REMARK  114  A    between atoms: _280  and  _281
REMARK  115  A    between atoms: _280  and  _283
REMARK  116  A    between atoms: _285  and  _287
REMARK  117  A    between atoms: _287  and  _288
REMARK  118  A    between atoms: _290  and  _292
REMARK  119  A    between atoms: _292  and  _293
REMARK  120  A    between atoms: _292  and  _295
REMARK  121  A    between atoms: _295  and  _296
REMARK  122  A    between atoms: _299  and  _301
REMARK  123  A    between atoms: _301  and  _302
REMARK  124  A    between atoms: _301  and  _304
REMARK  125  A    between atoms: _304  and  _305
REMARK  126  A    between atoms: _311  and  _312
REMARK  127  A    between atoms: _317  and  _319
REMARK  128  A    between atoms: _319  and  _320
REMARK  129  A    between atoms: _319  and  _322
REMARK  130  A    between atoms: _322  and  _323
REMARK  131  A    between atoms: _326  and  _328
REMARK  132  A    between atoms: _328  and  _329
REMARK  133  A    between atoms: _328  and  _331
REMARK  134  A    between atoms: _331  and  _332
REMARK  135  A    between atoms: _337  and  _338
REMARK  136  A    between atoms: _340  and  _342
REMARK  137  A    between atoms: _342  and  _343
REMARK  138  A    between atoms: _342  and  _345
REMARK  139  A    between atoms: _345  and  _346
REMARK  140  A    between atoms: _348  and  _350
REMARK  141  A    between atoms: _350  and  _351
REMARK  142  A    between atoms: _350  and  _353
REMARK  143  A    between atoms: _353  and  _354
REMARK  144  A    between atoms: _357  and  _359
REMARK  145  A    between atoms: _359  and  _360
REMARK  146  A    between atoms: _359  and  _362
REMARK  147  A    between atoms: _362  and  _363
REMARK  148  A    between atoms: _366  and  _368
REMARK  149  A    between atoms: _368  and  _369
REMARK  150  A    between atoms: _368  and  _371
REMARK  151  A    between atoms: _371  and  _372
REMARK  152  A    between atoms: _375  and  _377
REMARK  153  A    between atoms: _377  and  _378
REMARK  154  A    between atoms: _377  and  _380
REMARK  155  A    between atoms: _380  and  _381
REMARK  156  A    between atoms: _384  and  _386
REMARK  157  A    between atoms: _386  and  _387
REMARK  158  A    between atoms: _386  and  _389
REMARK  159  A    between atoms: _392  and  _394
REMARK  160  A    between atoms: _394  and  _395
REMARK  161  A    between atoms: _398  and  _400
REMARK  162  A    between atoms: _400  and  _401
REMARK  163  A    between atoms: _400  and  _403
REMARK  164  A    between atoms: _403  and  _404
REMARK  165  A    between atoms: _407  and  _409
REMARK  166  A    between atoms: _409  and  _410
REMARK  167  A    between atoms: _409  and  _412
REMARK  168  A    between atoms: _412  and  _413
REMARK  169  A    between atoms: _416  and  _418
REMARK  170  A    between atoms: _418  and  _419
REMARK  171  A    between atoms: _418  and  _421
REMARK  172  A    between atoms: _421  and  _422
REMARK  173  A    between atoms: _425  and  _427
REMARK  174  A    between atoms: _427  and  _428
REMARK  175  A    between atoms: _427  and  _430
REMARK  176  A    between atoms: _430  and  _431
REMARK  177  A    between atoms: _431  and  _432
REMARK  178  A    between atoms: _435  and  _437
REMARK  179  A    between atoms: _437  and  _438
REMARK  180  A    between atoms: _437  and  _440
REMARK  181  A    between atoms: _440  and  _441
REMARK  182  A    between atoms: _444  and  _446
REMARK  183  A    between atoms: _446  and  _447
REMARK  184  A    between atoms: _446  and  _449
REMARK  185  A    between atoms: _449  and  _450
REMARK  186  A    between atoms: _453  and  _455
REMARK  187  A    between atoms: _455  and  _456
REMARK  188  A    between atoms: _455  and  _458
REMARK  189  A    between atoms: _458  and  _459
REMARK  190  A    between atoms: _462  and  _464
REMARK  191  A    between atoms: _464  and  _465
REMARK  192  A    between atoms: _464  and  _467
REMARK  193  A    between atoms: _467  and  _468
REMARK  194  A    between atoms: _471  and  _473
REMARK  195  A    between atoms: _473  and  _474
REMARK  196  A    between atoms: _473  and  _476
REMARK  197  A    between atoms: _476  and  _477
REMARK  198  A    between atoms: _477  and  _478
REMARK  199  A    between atoms: _478  and  _479
REMARK  200  A    between atoms: _479  and  _480
REMARK  201  A    between atoms: _484  and  _486
REMARK  202  A    between atoms: _486  and  _487
REMARK  203  A    between atoms: _486  and  _489
REMARK  204  A    between atoms: _489  and  _490
REMARK  205  A    between atoms: _493  and  _495
REMARK  206  A    between atoms: _495  and  _496
REMARK  207  A    between atoms: _495  and  _498
REMARK  208  A    between atoms: _498  and  _499
REMARK  209  A    between atoms: _503  and  _504
REMARK  210  A    between atoms: _509  and  _511
REMARK  211  A    between atoms: _511  and  _512
REMARK  212  A    between atoms: _511  and  _514
REMARK  213  A    between atoms: _516  and  _518
REMARK  214  A    between atoms: _518  and  _519
REMARK  215  A    between atoms: _518  and  _521
REMARK  216  A    between atoms: _521  and  _522
REMARK  217  A    between atoms: _525  and  _527
REMARK  218  A    between atoms: _527  and  _528
REMARK  219  A    between atoms: _527  and  _530
REMARK  220  A    between atoms: _530  and  _531
REMARK  221  A    between atoms: _531  and  _532
REMARK  222  A    between atoms: _537  and  _539
REMARK  223  A    between atoms: _539  and  _540
REMARK  224  A    between atoms: _539  and  _542
REMARK  225  A    between atoms: _542  and  _543
REMARK  226  A    between atoms: _545  and  _547
REMARK  227  A    between atoms: _547  and  _548
REMARK  228  A    between atoms: _547  and  _550
REMARK  229  A    between atoms: _550  and  _551
REMARK  230  A    between atoms: _555  and  _556
REMARK  231  A    between atoms: _561  and  _563
REMARK  232  A    between atoms: _563  and  _564
REMARK  233  A    between atoms: _563  and  _566
REMARK  234  A    between atoms: _566  and  _567
REMARK  235  A    between atoms: _567  and  _568
REMARK                            x       y       z     vdW  Elec       q    Type
REMARK                         _______ _______ _______ _____ _____    ______ ____
ROOT
ATOM      1  N   PRO A   1       6.665  -9.920  17.134  0.00  0.00    -0.212 NA
ATOM      2  CA  PRO A   1       5.281 -10.310  17.396  0.00  0.00    +0.137 C 
ATOM      3  CB  PRO A   1       4.505  -9.056  17.025  0.00  0.00    +0.027 C 
ATOM      4  CG  PRO A   1       5.281  -8.546  15.843  0.00  0.00    +0.021 C 
ATOM      5  CD  PRO A   1       6.722  -8.707  16.294  0.00  0.00    +0.089 C 
ENDROOT
BRANCH   2   6
ATOM      6  C   PRO A   1       4.965 -11.491  16.479  0.00  0.00    +0.224 C 
ATOM      7  O   PRO A   1       5.519 -11.592  15.383  0.00  0.00    -0.287 OA
ENDBRANCH   2   6
TORSDOF 1
REMARK  Name = ../refined-set-2016/3lcv/3lcv_pocket.pdb
REMARK  235 active torsions:
REMARK  status: ('A' for Active; 'I' for Inactive)
REMARK    1  A    between atoms: _1  and  _3
REMARK    2  A    between atoms: _3  and  _4
REMARK    3  A    between atoms: _3  and  _6
REMARK    4  A    between atoms: _9  and  _11
REMARK    5  A    between atoms: _11  and  _12
REMARK    6  A    between atoms: _15  and  _17
REMARK    7  A    between atoms: _17  and  _18
REMARK    8  A    between atoms: _17  and  _20
REMARK    9  A    between atoms: _20  and  _21
REMARK   10  A    between atoms: _24  and  _26
REMARK   11  A    between atoms: _26  and  _27
REMARK   12  A    between atoms: _26  and  _29
REMARK   13  A    between atoms: _29  and  _30
REMARK   14  A    between atoms: _30  and  _31
REMARK   15  A    between atoms: _31  and  _32
REMARK   16  A    between atoms: _41  and  _43
REMARK   17  A    between atoms: _43  and  _44
REMARK   18  A    between atoms: _43  and  _46
REMARK   19  A    between atoms: _46  and  _47
REMARK   20  A    between atoms: _50  and  _52
REMARK   21  A    between atoms: _52  and  _53
REMARK   22  A    between atoms: _55  and  _57
REMARK   23  A    between atoms: _57  and  _58
REMARK   24  A    between atoms: _57  and  _60
REMARK   25  A    between atoms: _60  and  _61
REMARK   26  A    between atoms: _64  and  _66
REMARK   27  A    between atoms: _66  and  _67
REMARK   28  A    between atoms: _66  and  _69
REMARK   29  A    between atoms: _69  and  _70
REMARK   30  A    between atoms: _70  and  _71
REMARK   31  A    between atoms: _74  and  _76
REMARK   32  A    between atoms: _76  and  _77
REMARK   33  A    between atoms: _76  and  _79
REMARK   34  A    between atoms: _79  and  _80
REMARK   35  A    between atoms: _83  and  _85
REMARK   36  A    between atoms: _85  and  _86
REMARK   37  A    between atoms: _85  and  _88
REMARK   38  A    between atoms: _88  and  _89
REMARK   39  A    between atoms: _94  and  _95
REMARK   40  A    between atoms: _97  and  _99
REMARK   41  A    between atoms: _99  and  _100
REMARK   42  A    between atoms: _102  and  _104
REMARK   43  A    between atoms: _104  and  _105
REMARK   44  A    between atoms: _108  and  _110
REMARK   45  A    between atoms: _110  and  _111
REMARK   46  A    between atoms: _110  and  _113
REMARK   47  A    between atoms: _113  and  _114
REMARK   48  A    between atoms: _120  and  _122
REMARK   49  A    between atoms: _122  and  _123
REMARK   50  A    between atoms: _122  and  _125
REMARK   51  A    between atoms: _125  and  _126
REMARK   52  A    between atoms: _129  and  _131
REMARK   53  A    between atoms: _131  and  _132
REMARK   54  A    between atoms: _131  and  _134
REMARK   55  A    between atoms: _134  and  _135
REMARK   56  A    between atoms: _135  and  _136
REMARK   57  A    between atoms: _138  and  _140
REMARK   58  A    between atoms: _140  and  _141
REMARK   59  A    between atoms: _140  and  _143
REMARK   60  A    between atoms: _143  and  _144
REMARK   61  A    between atoms: _149  and  _151
REMARK   62  A    between atoms: _151  and  _152
REMARK   63  A    between atoms: _151  and  _154
REMARK   64  A    between atoms: _154  and  _155
REMARK   65  A    between atoms: _158  and  _160
REMARK   66  A    between atoms: _160  and  _161
REMARK   67  A    between atoms: _160  and  _163
REMARK   68  A    between atoms: _163  and  _164
REMARK   69  A    between atoms: _166  and  _168
REMARK   70  A    between atoms: _168  and  _169
REMARK   71  A    between atoms: _168  and  _171
REMARK   72  A    between atoms: _171  and  _172
REMARK   73  A    between atoms: _175  and  _177
REMARK   74  A    between atoms: _177  and  _178
REMARK   75  A    between atoms: _177  and  _180
REMARK   76  A    between atoms: _180  and  _181
REMARK   77  A    between atoms: _181  and  _182
REMARK   78  A    between atoms: _182  and  _183
REMARK   79  A    between atoms: _192  and  _194
REMARK   80  A    between atoms: _194  and  _195
REMARK   81  A    between atoms: _194  and  _197
REMARK   82  A    between atoms: _197  and  _198
REMARK   83  A    between atoms: _198  and  _199
REMARK   84  A    between atoms: _202  and  _204
REMARK   85  A    between atoms: _204  and  _205
REMARK   86  A    between atoms: _204  and  _207
REMARK   87  A    between atoms: _207  and  _208
REMARK   88  A    between atoms: _208  and  _209
REMARK   89  A    between atoms: _209  and  _210
REMARK   90  A    between atoms: _219  and  _221
REMARK   91  A    between atoms: _221  and  _222
REMARK   92  A    between atoms: _221  and  _224
REMARK   93  A    between atoms: _224  and  _225
REMARK   94  A    between atoms: _228  and  _230
REMARK   95  A    between atoms: _230  and  _231
REMARK   96  A    between atoms: _230  and  _233
REMARK   97  A    between atoms: _233  and  _234
REMARK   98  A    between atoms: _240  and  _242
REMARK   99  A    between atoms: _242  and  _243
REMARK  100  A    between atoms: _242  and  _245
REMARK  101  A    between atoms: _245  and  _246
REMARK  102  A    between atoms: _251  and  _252
REMARK  103  A    between atoms: _254  and  _256
REMARK  104  A    between atoms: _256  and  _257
REMARK  105  A    between atoms: _256  and  _259
REMARK  106  A    between atoms: _259  and  _260
REMARK  107  A    between atoms: _263  and  _265
REMARK  108  A    between atoms: _265  and  _266
REMARK  109  A    between atoms: _265  and  _268
REMARK  110  A    between atoms: _268  and  _269
REMARK  111  A    between atoms: _272  and  _274
REMARK  112  A    between atoms: _274  and  _275
REMARK  113  A    between atoms: _278  and  _280
REMARK  114  A    between atoms: _280  and  _281
REMARK  115  A    between atoms: _280  and  _283
REMARK  116  A    between atoms: _285  and  _287
REMARK  117  A    between atoms: _287  and  _288
REMARK  118  A    between atoms: _290  and  _292
REMARK  119  A    between atoms: _292  and  _293
REMARK  120  A    between atoms: _292  and  _295
REMARK  121  A    between atoms: _295  and  _296
REMARK  122  A    between atoms: _299  and  _301
REMARK  123  A    between atoms: _301  and  _302
REMARK  124  A    between atoms: _301  and  _304
REMARK  125  A    between atoms: _304  and  _305
REMARK  126  A    between atoms: _311  and  _312
REMARK  127  A    between atoms: _317  and  _319
REMARK  128  A    between atoms: _319  and  _320
REMARK  129  A    between atoms: _319  and  _322
REMARK  130  A    between atoms: _322  and  _323
REMARK  131  A    between atoms: _326  and  _328
REMARK  132  A    between atoms: _328  and  _329
REMARK  133  A    between atoms: _328  and  _331
REMARK  134  A    between atoms: _331  and  _332
REMARK  135  A    between atoms: _337  and  _338
REMARK  136  A    between atoms: _340  and  _342
REMARK  137  A    between atoms: _342  and  _343
REMARK  138  A    between atoms: _342  and  _345
REMARK  139  A    between atoms: _345  and  _346
REMARK  140  A    between atoms: _348  and  _350
REMARK  141  A    between atoms: _350  and  _351
REMARK  142  A    between atoms: _350  and  _353
REMARK  143  A    between atoms: _353  and  _354
REMARK  144  A    between atoms: _357  and  _359
REMARK  145  A    between atoms: _359  and  _360
REMARK  146  A    between atoms: _359  and  _362
REMARK  147  A    between atoms: _362  and  _363
REMARK  148  A    between atoms: _366  and  _368
REMARK  149  A    between atoms: _368  and  _369
REMARK  150  A    between atoms: _368  and  _371
REMARK  151  A    between atoms: _371  and  _372
REMARK  152  A    between atoms: _375  and  _377
REMARK  153  A    between atoms: _377  and  _378
REMARK  154  A    between atoms: _377  and  _380
REMARK  155  A    between atoms: _380  and  _381
REMARK  156  A    between atoms: _384  and  _386
REMARK  157  A    between atoms: _386  and  _387
REMARK  158  A    between atoms: _386  and  _389
REMARK  159  A    between atoms: _392  and  _394
REMARK  160  A    between atoms: _394  and  _395
REMARK  161  A    between atoms: _398  and  _400
REMARK  162  A    between atoms: _400  and  _401
REMARK  163  A    between atoms: _400  and  _403
REMARK  164  A    between atoms: _403  and  _404
REMARK  165  A    between atoms: _407  and  _409
REMARK  166  A    between atoms: _409  and  _410
REMARK  167  A    between atoms: _409  and  _412
REMARK  168  A    between atoms: _412  and  _413
REMARK  169  A    between atoms: _416  and  _418
REMARK  170  A    between atoms: _418  and  _419
REMARK  171  A    between atoms: _418  and  _421
REMARK  172  A    between atoms: _421  and  _422
REMARK  173  A    between atoms: _425  and  _427
REMARK  174  A    between atoms: _427  and  _428
REMARK  175  A    between atoms: _427  and  _430
REMARK  176  A    between atoms: _430  and  _431
REMARK  177  A    between atoms: _431  and  _432
REMARK  178  A    between atoms: _435  and  _437
REMARK  179  A    between atoms: _437  and  _438
REMARK  180  A    between atoms: _437  and  _440
REMARK  181  A    between atoms: _440  and  _441
REMARK  182  A    between atoms: _444  and  _446
REMARK  183  A    between atoms: _446  and  _447
REMARK  184  A    between atoms: _446  and  _449
REMARK  185  A    between atoms: _449  and  _450
REMARK  186  A    between atoms: _453  and  _455
REMARK  187  A    between atoms: _455  and  _456
REMARK  188  A    between atoms: _455  and  _458
REMARK  189  A    between atoms: _458  and  _459
REMARK  190  A    between atoms: _462  and  _464
REMARK  191  A    between atoms: _464  and  _465
REMARK  192  A    between atoms: _464  and  _467
REMARK  193  A    between atoms: _467  and  _468
REMARK  194  A    between atoms: _471  and  _473
REMARK  195  A    between atoms: _473  and  _474
REMARK  196  A    between atoms: _473  and  _476
REMARK  197  A    between atoms: _476  and  _477
REMARK  198  A    between atoms: _477  and  _478
REMARK  199  A    between atoms: _478  and  _479
REMARK  200  A    between atoms: _479  and  _480
REMARK  201  A    between atoms: _484  and  _486
REMARK  202  A    between atoms: _486  and  _487
REMARK  203  A    between atoms: _486  and  _489
REMARK  204  A    between atoms: _489  and  _490
REMARK  205  A    between atoms: _493  and  _495
REMARK  206  A    between atoms: _495  and  _496
REMARK  207  A    between atoms: _495  and  _498
REMARK  208  A    between atoms: _498  and  _499
REMARK  209  A    between atoms: _503  and  _504
REMARK  210  A    between atoms: _509  and  _511
REMARK  211  A    between atoms: _511  and  _512
REMARK  212  A    between atoms: _511  and  _514
REMARK  213  A    between atoms: _516  and  _518
REMARK  214  A    between atoms: _518  and  _519
REMARK  215  A    between atoms: _518  and  _521
REMARK  216  A    between atoms: _521  and  _522
REMARK  217  A    between atoms: _525  and  _527
REMARK  218  A    between atoms: _527  and  _528
REMARK  219  A    between atoms: _527  and  _530
REMARK  220  A    between atoms: _530  and  _531
REMARK  221  A    between atoms: _531  and  _532
REMARK  222  A    between atoms: _537  and  _539
REMARK  223  A    between atoms: _539  and  _540
REMARK  224  A    between atoms: _539  and  _542
REMARK  225  A    between atoms: _542  and  _543
REMARK  226  A    between atoms: _545  and  _547
REMARK  227  A    between atoms: _547  and  _548
REMARK  228  A    between atoms: _547  and  _550
REMARK  229  A    between atoms: _550  and  _551
REMARK  230  A    between atoms: _555  and  _556
REMARK  231  A    between atoms: _561  and  _563
REMARK  232  A    between atoms: _563  and  _564
REMARK  233  A    between atoms: _563  and  _566
REMARK  234  A    between atoms: _566  and  _567
REMARK  235  A    between atoms: _567  and  _568
REMARK                            x       y       z     vdW  Elec       q    Type
REMARK                         _______ _______ _______ _____ _____    ______ ____
ROOT
ATOM      1  CA  GLU A   1       5.937 -12.973  21.217  0.00  0.00    +0.134 C 
ENDROOT
BRANCH   1   2
ATOM      2  N   GLU A   1       4.643 -13.619  21.364  0.00  0.00    -0.239 NA
ATOM      3  H   GLU A   1       4.526 -14.374  22.070  0.00  0.00    +0.142 HD
ENDBRANCH   1   2
BRANCH   1   4
ATOM      4  C   GLU A   1       7.108 -13.950  21.122  0.00  0.00    +0.224 C 
ATOM      5  O   GLU A   1       7.312 -14.781  22.010  0.00  0.00    -0.287 OA
ENDBRANCH   1   4
BRANCH   1   6
ATOM      6  CB  GLU A   1       6.161 -12.013  22.397  0.00  0.00    +0.037 C 
BRANCH   6   7
ATOM      7  CG  GLU A   1       7.010 -10.784  22.078  0.00  0.00    +0.116 C 
BRANCH   7   8
ATOM      8  CD  GLU A   1       6.980  -9.727  23.186  0.00  0.00    +0.365 C 
ATOM      9  OE2 GLU A   1       6.082  -9.784  24.053  0.00  0.00    -0.246 OA
ATOM     10  OE1 GLU A   1       7.844  -8.829  23.182  0.00  0.00    -0.246 OA
ENDBRANCH   7   8
ENDBRANCH   6   7
ENDBRANCH   1   6
TORSDOF 5
REMARK  Name = ../refined-set-2016/3lcv/3lcv_pocket.pdb
REMARK  235 active torsions:
REMARK  status: ('A' for Active; 'I' for Inactive)
REMARK    1  A    between atoms: _1  and  _3
REMARK    2  A    between atoms: _3  and  _4
REMARK    3  A    between atoms: _3  and  _6
REMARK    4  A    between atoms: _9  and  _11
REMARK    5  A    between atoms: _11  and  _12
REMARK    6  A    between atoms: _15  and  _17
REMARK    7  A    between atoms: _17  and  _18
REMARK    8  A    between atoms: _17  and  _20
REMARK    9  A    between atoms: _20  and  _21
REMARK   10  A    between atoms: _24  and  _26
REMARK   11  A    between atoms: _26  and  _27
REMARK   12  A    between atoms: _26  and  _29
REMARK   13  A    between atoms: _29  and  _30
REMARK   14  A    between atoms: _30  and  _31
REMARK   15  A    between atoms: _31  and  _32
REMARK   16  A    between atoms: _41  and  _43
REMARK   17  A    between atoms: _43  and  _44
REMARK   18  A    between atoms: _43  and  _46
REMARK   19  A    between atoms: _46  and  _47
REMARK   20  A    between atoms: _50  and  _52
REMARK   21  A    between atoms: _52  and  _53
REMARK   22  A    between atoms: _55  and  _57
REMARK   23  A    between atoms: _57  and  _58
REMARK   24  A    between atoms: _57  and  _60
REMARK   25  A    between atoms: _60  and  _61
REMARK   26  A    between atoms: _64  and  _66
REMARK   27  A    between atoms: _66  and  _67
REMARK   28  A    between atoms: _66  and  _69
REMARK   29  A    between atoms: _69  and  _70
REMARK   30  A    between atoms: _70  and  _71
REMARK   31  A    between atoms: _74  and  _76
REMARK   32  A    between atoms: _76  and  _77
REMARK   33  A    between atoms: _76  and  _79
REMARK   34  A    between atoms: _79  and  _80
REMARK   35  A    between atoms: _83  and  _85
REMARK   36  A    between atoms: _85  and  _86
REMARK   37  A    between atoms: _85  and  _88
REMARK   38  A    between atoms: _88  and  _89
REMARK   39  A    between atoms: _94  and  _95
REMARK   40  A    between atoms: _97  and  _99
REMARK   41  A    between atoms: _99  and  _100
REMARK   42  A    between atoms: _102  and  _104
REMARK   43  A    between atoms: _104  and  _105
REMARK   44  A    between atoms: _108  and  _110
REMARK   45  A    between atoms: _110  and  _111
REMARK   46  A    between atoms: _110  and  _113
REMARK   47  A    between atoms: _113  and  _114
REMARK   48  A    between atoms: _120  and  _122
REMARK   49  A    between atoms: _122  and  _123
REMARK   50  A    between atoms: _122  and  _125
REMARK   51  A    between atoms: _125  and  _126
REMARK   52  A    between atoms: _129  and  _131
REMARK   53  A    between atoms: _131  and  _132
REMARK   54  A    between atoms: _131  and  _134
REMARK   55  A    between atoms: _134  and  _135
REMARK   56  A    between atoms: _135  and  _136
REMARK   57  A    between atoms: _138  and  _140
REMARK   58  A    between atoms: _140  and  _141
REMARK   59  A    between atoms: _140  and  _143
REMARK   60  A    between atoms: _143  and  _144
REMARK   61  A    between atoms: _149  and  _151
REMARK   62  A    between atoms: _151  and  _152
REMARK   63  A    between atoms: _151  and  _154
REMARK   64  A    between atoms: _154  and  _155
REMARK   65  A    between atoms: _158  and  _160
REMARK   66  A    between atoms: _160  and  _161
REMARK   67  A    between atoms: _160  and  _163
REMARK   68  A    between atoms: _163  and  _164
REMARK   69  A    between atoms: _166  and  _168
REMARK   70  A    between atoms: _168  and  _169
REMARK   71  A    between atoms: _168  and  _171
REMARK   72  A    between atoms: _171  and  _172
REMARK   73  A    between atoms: _175  and  _177
REMARK   74  A    between atoms: _177  and  _178
REMARK   75  A    between atoms: _177  and  _180
REMARK   76  A    between atoms: _180  and  _181
REMARK   77  A    between atoms: _181  and  _182
REMARK   78  A    between atoms: _182  and  _183
REMARK   79  A    between atoms: _192  and  _194
REMARK   80  A    between atoms: _194  and  _195
REMARK   81  A    between atoms: _194  and  _197
REMARK   82  A    between atoms: _197  and  _198
REMARK   83  A    between atoms: _198  and  _199
REMARK   84  A    between atoms: _202  and  _204
REMARK   85  A    between atoms: _204  and  _205
REMARK   86  A    between atoms: _204  and  _207
REMARK   87  A    between atoms: _207  and  _208
REMARK   88  A    between atoms: _208  and  _209
REMARK   89  A    between atoms: _209  and  _210
REMARK   90  A    between atoms: _219  and  _221
REMARK   91  A    between atoms: _221  and  _222
REMARK   92  A    between atoms: _221  and  _224
REMARK   93  A    between atoms: _224  and  _225
REMARK   94  A    between atoms: _228  and  _230
REMARK   95  A    between atoms: _230  and  _231
REMARK   96  A    between atoms: _230  and  _233
REMARK   97  A    between atoms: _233  and  _234
REMARK   98  A    between atoms: _240  and  _242
REMARK   99  A    between atoms: _242  and  _243
REMARK  100  A    between atoms: _242  and  _245
REMARK  101  A    between atoms: _245  and  _246
REMARK  102  A    between atoms: _251  and  _252
REMARK  103  A    between atoms: _254  and  _256
REMARK  104  A    between atoms: _256  and  _257
REMARK  105  A    between atoms: _256  and  _259
REMARK  106  A    between atoms: _259  and  _260
REMARK  107  A    between atoms: _263  and  _265
REMARK  108  A    between atoms: _265  and  _266
REMARK  109  A    between atoms: _265  and  _268
REMARK  110  A    between atoms: _268  and  _269
REMARK  111  A    between atoms: _272  and  _274
REMARK  112  A    between atoms: _274  and  _275
REMARK  113  A    between atoms: _278  and  _280
REMARK  114  A    between atoms: _280  and  _281
REMARK  115  A    between atoms: _280  and  _283
REMARK  116  A    between atoms: _285  and  _287
REMARK  117  A    between atoms: _287  and  _288
REMARK  118  A    between atoms: _290  and  _292
REMARK  119  A    between atoms: _292  and  _293
REMARK  120  A    between atoms: _292  and  _295
REMARK  121  A    between atoms: _295  and  _296
REMARK  122  A    between atoms: _299  and  _301
REMARK  123  A    between atoms: _301  and  _302
REMARK  124  A    between atoms: _301  and  _304
REMARK  125  A    between atoms: _304  and  _305
REMARK  126  A    between atoms: _311  and  _312
REMARK  127  A    between atoms: _317  and  _319
REMARK  128  A    between atoms: _319  and  _320
REMARK  129  A    between atoms: _319  and  _322
REMARK  130  A    between atoms: _322  and  _323
REMARK  131  A    between atoms: _326  and  _328
REMARK  132  A    between atoms: _328  and  _329
REMARK  133  A    between atoms: _328  and  _331
REMARK  134  A    between atoms: _331  and  _332
REMARK  135  A    between atoms: _337  and  _338
REMARK  136  A    between atoms: _340  and  _342
REMARK  137  A    between atoms: _342  and  _343
REMARK  138  A    between atoms: _342  and  _345
REMARK  139  A    between atoms: _345  and  _346
REMARK  140  A    between atoms: _348  and  _350
REMARK  141  A    between atoms: _350  and  _351
REMARK  142  A    between atoms: _350  and  _353
REMARK  143  A    between atoms: _353  and  _354
REMARK  144  A    between atoms: _357  and  _359
REMARK  145  A    between atoms: _359  and  _360
REMARK  146  A    between atoms: _359  and  _362
REMARK  147  A    between atoms: _362  and  _363
REMARK  148  A    between atoms: _366  and  _368
REMARK  149  A    between atoms: _368  and  _369
REMARK  150  A    between atoms: _368  and  _371
REMARK  151  A    between atoms: _371  and  _372
REMARK  152  A    between atoms: _375  and  _377
REMARK  153  A    between atoms: _377  and  _378
REMARK  154  A    between atoms: _377  and  _380
REMARK  155  A    between atoms: _380  and  _381
REMARK  156  A    between atoms: _384  and  _386
REMARK  157  A    between atoms: _386  and  _387
REMARK  158  A    between atoms: _386  and  _389
REMARK  159  A    between atoms: _392  and  _394
REMARK  160  A    between atoms: _394  and  _395
REMARK  161  A    between atoms: _398  and  _400
REMARK  162  A    between atoms: _400  and  _401
REMARK  163  A    between atoms: _400  and  _403
REMARK  164  A    between atoms: _403  and  _404
REMARK  165  A    between atoms: _407  and  _409
REMARK  166  A    between atoms: _409  and  _410
REMARK  167  A    between atoms: _409  and  _412
REMARK  168  A    between atoms: _412  and  _413
REMARK  169  A    between atoms: _416  and  _418
REMARK  170  A    between atoms: _418  and  _419
REMARK  171  A    between atoms: _418  and  _421
REMARK  172  A    between atoms: _421  and  _422
REMARK  173  A    between atoms: _425  and  _427
REMARK  174  A    between atoms: _427  and  _428
REMARK  175  A    between atoms: _427  and  _430
REMARK  176  A    between atoms: _430  and  _431
REMARK  177  A    between atoms: _431  and  _432
REMARK  178  A    between atoms: _435  and  _437
REMARK  179  A    between atoms: _437  and  _438
REMARK  180  A    between atoms: _437  and  _440
REMARK  181  A    between atoms: _440  and  _441
REMARK  182  A    between atoms: _444  and  _446
REMARK  183  A    between atoms: _446  and  _447
REMARK  184  A    between atoms: _446  and  _449
REMARK  185  A    between atoms: _449  and  _450
REMARK  186  A    between atoms: _453  and  _455
REMARK  187  A    between atoms: _455  and  _456
REMARK  188  A    between atoms: _455  and  _458
REMARK  189  A    between atoms: _458  and  _459
REMARK  190  A    between atoms: _462  and  _464
REMARK  191  A    between atoms: _464  and  _465
REMARK  192  A    between atoms: _464  and  _467
REMARK  193  A    between atoms: _467  and  _468
REMARK  194  A    between atoms: _471  and  _473
REMARK  195  A    between atoms: _473  and  _474
REMARK  196  A    between atoms: _473  and  _476
REMARK  197  A    between atoms: _476  and  _477
REMARK  198  A    between atoms: _477  and  _478
REMARK  199  A    between atoms: _478  and  _479
REMARK  200  A    between atoms: _479  and  _480
REMARK  201  A    between atoms: _484  and  _486
REMARK  202  A    between atoms: _486  and  _487
REMARK  203  A    between atoms: _486  and  _489
REMARK  204  A    between atoms: _489  and  _490
REMARK  205  A    between atoms: _493  and  _495
REMARK  206  A    between atoms: _495  and  _496
REMARK  207  A    between atoms: _495  and  _498
REMARK  208  A    between atoms: _498  and  _499
REMARK  209  A    between atoms: _503  and  _504
REMARK  210  A    between atoms: _509  and  _511
REMARK  211  A    between atoms: _511  and  _512
REMARK  212  A    between atoms: _511  and  _514
REMARK  213  A    between atoms: _516  and  _518
REMARK  214  A    between atoms: _518  and  _519
REMARK  215  A    between atoms: _518  and  _521
REMARK  216  A    between atoms: _521  and  _522
REMARK  217  A    between atoms: _525  and  _527
REMARK  218  A    between atoms: _527  and  _528
REMARK  219  A    between atoms: _527  and  _530
REMARK  220  A    between atoms: _530  and  _531
REMARK  221  A    between atoms: _531  and  _532
REMARK  222  A    between atoms: _537  and  _539
REMARK  223  A    between atoms: _539  and  _540
REMARK  224  A    between atoms: _539  and  _542
REMARK  225  A    between atoms: _542  and  _543
REMARK  226  A    between atoms: _545  and  _547
REMARK  227  A    between atoms: _547  and  _548
REMARK  228  A    between atoms: _547  and  _550
REMARK  229  A    between atoms: _550  and  _551
REMARK  230  A    between atoms: _555  and  _556
REMARK  231  A    between atoms: _561  and  _563
REMARK  232  A    between atoms: _563  and  _564
REMARK  233  A    between atoms: _563  and  _566
REMARK  234  A    between atoms: _566  and  _567
REMARK  235  A    between atoms: _567  and  _568
REMARK                            x       y       z     vdW  Elec       q    Type
REMARK                         _______ _______ _______ _____ _____    ______ ____
ROOT
ATOM      1  O   HOH     1       9.413  -1.892  25.511  0.00  0.00    +0.000 OA
ENDROOT
TORSDOF 0
REMARK  Name = ../refined-set-2016/3lcv/3lcv_pocket.pdb
REMARK  235 active torsions:
REMARK  status: ('A' for Active; 'I' for Inactive)
REMARK    1  A    between atoms: _1  and  _3
REMARK    2  A    between atoms: _3  and  _4
REMARK    3  A    between atoms: _3  and  _6
REMARK    4  A    between atoms: _9  and  _11
REMARK    5  A    between atoms: _11  and  _12
REMARK    6  A    between atoms: _15  and  _17
REMARK    7  A    between atoms: _17  and  _18
REMARK    8  A    between atoms: _17  and  _20
REMARK    9  A    between atoms: _20  and  _21
REMARK   10  A    between atoms: _24  and  _26
REMARK   11  A    between atoms: _26  and  _27
REMARK   12  A    between atoms: _26  and  _29
REMARK   13  A    between atoms: _29  and  _30
REMARK   14  A    between atoms: _30  and  _31
REMARK   15  A    between atoms: _31  and  _32
REMARK   16  A    between atoms: _41  and  _43
REMARK   17  A    between atoms: _43  and  _44
REMARK   18  A    between atoms: _43  and  _46
REMARK   19  A    between atoms: _46  and  _47
REMARK   20  A    between atoms: _50  and  _52
REMARK   21  A    between atoms: _52  and  _53
REMARK   22  A    between atoms: _55  and  _57
REMARK   23  A    between atoms: _57  and  _58
REMARK   24  A    between atoms: _57  and  _60
REMARK   25  A    between atoms: _60  and  _61
REMARK   26  A    between atoms: _64  and  _66
REMARK   27  A    between atoms: _66  and  _67
REMARK   28  A    between atoms: _66  and  _69
REMARK   29  A    between atoms: _69  and  _70
REMARK   30  A    between atoms: _70  and  _71
REMARK   31  A    between atoms: _74  and  _76
REMARK   32  A    between atoms: _76  and  _77
REMARK   33  A    between atoms: _76  and  _79
REMARK   34  A    between atoms: _79  and  _80
REMARK   35  A    between atoms: _83  and  _85
REMARK   36  A    between atoms: _85  and  _86
REMARK   37  A    between atoms: _85  and  _88
REMARK   38  A    between atoms: _88  and  _89
REMARK   39  A    between atoms: _94  and  _95
REMARK   40  A    between atoms: _97  and  _99
REMARK   41  A    between atoms: _99  and  _100
REMARK   42  A    between atoms: _102  and  _104
REMARK   43  A    between atoms: _104  and  _105
REMARK   44  A    between atoms: _108  and  _110
REMARK   45  A    between atoms: _110  and  _111
REMARK   46  A    between atoms: _110  and  _113
REMARK   47  A    between atoms: _113  and  _114
REMARK   48  A    between atoms: _120  and  _122
REMARK   49  A    between atoms: _122  and  _123
REMARK   50  A    between atoms: _122  and  _125
REMARK   51  A    between atoms: _125  and  _126
REMARK   52  A    between atoms: _129  and  _131
REMARK   53  A    between atoms: _131  and  _132
REMARK   54  A    between atoms: _131  and  _134
REMARK   55  A    between atoms: _134  and  _135
REMARK   56  A    between atoms: _135  and  _136
REMARK   57  A    between atoms: _138  and  _140
REMARK   58  A    between atoms: _140  and  _141
REMARK   59  A    between atoms: _140  and  _143
REMARK   60  A    between atoms: _143  and  _144
REMARK   61  A    between atoms: _149  and  _151
REMARK   62  A    between atoms: _151  and  _152
REMARK   63  A    between atoms: _151  and  _154
REMARK   64  A    between atoms: _154  and  _155
REMARK   65  A    between atoms: _158  and  _160
REMARK   66  A    between atoms: _160  and  _161
REMARK   67  A    between atoms: _160  and  _163
REMARK   68  A    between atoms: _163  and  _164
REMARK   69  A    between atoms: _166  and  _168
REMARK   70  A    between atoms: _168  and  _169
REMARK   71  A    between atoms: _168  and  _171
REMARK   72  A    between atoms: _171  and  _172
REMARK   73  A    between atoms: _175  and  _177
REMARK   74  A    between atoms: _177  and  _178
REMARK   75  A    between atoms: _177  and  _180
REMARK   76  A    between atoms: _180  and  _181
REMARK   77  A    between atoms: _181  and  _182
REMARK   78  A    between atoms: _182  and  _183
REMARK   79  A    between atoms: _192  and  _194
REMARK   80  A    between atoms: _194  and  _195
REMARK   81  A    between atoms: _194  and  _197
REMARK   82  A    between atoms: _197  and  _198
REMARK   83  A    between atoms: _198  and  _199
REMARK   84  A    between atoms: _202  and  _204
REMARK   85  A    between atoms: _204  and  _205
REMARK   86  A    between atoms: _204  and  _207
REMARK   87  A    between atoms: _207  and  _208
REMARK   88  A    between atoms: _208  and  _209
REMARK   89  A    between atoms: _209  and  _210
REMARK   90  A    between atoms: _219  and  _221
REMARK   91  A    between atoms: _221  and  _222
REMARK   92  A    between atoms: _221  and  _224
REMARK   93  A    between atoms: _224  and  _225
REMARK   94  A    between atoms: _228  and  _230
REMARK   95  A    between atoms: _230  and  _231
REMARK   96  A    between atoms: _230  and  _233
REMARK   97  A    between atoms: _233  and  _234
REMARK   98  A    between atoms: _240  and  _242
REMARK   99  A    between atoms: _242  and  _243
REMARK  100  A    between atoms: _242  and  _245
REMARK  101  A    between atoms: _245  and  _246
REMARK  102  A    between atoms: _251  and  _252
REMARK  103  A    between atoms: _254  and  _256
REMARK  104  A    between atoms: _256  and  _257
REMARK  105  A    between atoms: _256  and  _259
REMARK  106  A    between atoms: _259  and  _260
REMARK  107  A    between atoms: _263  and  _265
REMARK  108  A    between atoms: _265  and  _266
REMARK  109  A    between atoms: _265  and  _268
REMARK  110  A    between atoms: _268  and  _269
REMARK  111  A    between atoms: _272  and  _274
REMARK  112  A    between atoms: _274  and  _275
REMARK  113  A    between atoms: _278  and  _280
REMARK  114  A    between atoms: _280  and  _281
REMARK  115  A    between atoms: _280  and  _283
REMARK  116  A    between atoms: _285  and  _287
REMARK  117  A    between atoms: _287  and  _288
REMARK  118  A    between atoms: _290  and  _292
REMARK  119  A    between atoms: _292  and  _293
REMARK  120  A    between atoms: _292  and  _295
REMARK  121  A    between atoms: _295  and  _296
REMARK  122  A    between atoms: _299  and  _301
REMARK  123  A    between atoms: _301  and  _302
REMARK  124  A    between atoms: _301  and  _304
REMARK  125  A    between atoms: _304  and  _305
REMARK  126  A    between atoms: _311  and  _312
REMARK  127  A    between atoms: _317  and  _319
REMARK  128  A    between atoms: _319  and  _320
REMARK  129  A    between atoms: _319  and  _322
REMARK  130  A    between atoms: _322  and  _323
REMARK  131  A    between atoms: _326  and  _328
REMARK  132  A    between atoms: _328  and  _329
REMARK  133  A    between atoms: _328  and  _331
REMARK  134  A    between atoms: _331  and  _332
REMARK  135  A    between atoms: _337  and  _338
REMARK  136  A    between atoms: _340  and  _342
REMARK  137  A    between atoms: _342  and  _343
REMARK  138  A    between atoms: _342  and  _345
REMARK  139  A    between atoms: _345  and  _346
REMARK  140  A    between atoms: _348  and  _350
REMARK  141  A    between atoms: _350  and  _351
REMARK  142  A    between atoms: _350  and  _353
REMARK  143  A    between atoms: _353  and  _354
REMARK  144  A    between atoms: _357  and  _359
REMARK  145  A    between atoms: _359  and  _360
REMARK  146  A    between atoms: _359  and  _362
REMARK  147  A    between atoms: _362  and  _363
REMARK  148  A    between atoms: _366  and  _368
REMARK  149  A    between atoms: _368  and  _369
REMARK  150  A    between atoms: _368  and  _371
REMARK  151  A    between atoms: _371  and  _372
REMARK  152  A    between atoms: _375  and  _377
REMARK  153  A    between atoms: _377  and  _378
REMARK  154  A    between atoms: _377  and  _380
REMARK  155  A    between atoms: _380  and  _381
REMARK  156  A    between atoms: _384  and  _386
REMARK  157  A    between atoms: _386  and  _387
REMARK  158  A    between atoms: _386  and  _389
REMARK  159  A    between atoms: _392  and  _394
REMARK  160  A    between atoms: _394  and  _395
REMARK  161  A    between atoms: _398  and  _400
REMARK  162  A    between atoms: _400  and  _401
REMARK  163  A    between atoms: _400  and  _403
REMARK  164  A    between atoms: _403  and  _404
REMARK  165  A    between atoms: _407  and  _409
REMARK  166  A    between atoms: _409  and  _410
REMARK  167  A    between atoms: _409  and  _412
REMARK  168  A    between atoms: _412  and  _413
REMARK  169  A    between atoms: _416  and  _418
REMARK  170  A    between atoms: _418  and  _419
REMARK  171  A    between atoms: _418  and  _421
REMARK  172  A    between atoms: _421  and  _422
REMARK  173  A    between atoms: _425  and  _427
REMARK  174  A    between atoms: _427  and  _428
REMARK  175  A    between atoms: _427  and  _430
REMARK  176  A    between atoms: _430  and  _431
REMARK  177  A    between atoms: _431  and  _432
REMARK  178  A    between atoms: _435  and  _437
REMARK  179  A    between atoms: _437  and  _438
REMARK  180  A    between atoms: _437  and  _440
REMARK  181  A    between atoms: _440  and  _441
REMARK  182  A    between atoms: _444  and  _446
REMARK  183  A    between atoms: _446  and  _447
REMARK  184  A    between atoms: _446  and  _449
REMARK  185  A    between atoms: _449  and  _450
REMARK  186  A    between atoms: _453  and  _455
REMARK  187  A    between atoms: _455  and  _456
REMARK  188  A    between atoms: _455  and  _458
REMARK  189  A    between atoms: _458  and  _459
REMARK  190  A    between atoms: _462  and  _464
REMARK  191  A    between atoms: _464  and  _465
REMARK  192  A    between atoms: _464  and  _467
REMARK  193  A    between atoms: _467  and  _468
REMARK  194  A    between atoms: _471  and  _473
REMARK  195  A    between atoms: _473  and  _474
REMARK  196  A    between atoms: _473  and  _476
REMARK  197  A    between atoms: _476  and  _477
REMARK  198  A    between atoms: _477  and  _478
REMARK  199  A    between atoms: _478  and  _479
REMARK  200  A    between atoms: _479  and  _480
REMARK  201  A    between atoms: _484  and  _486
REMARK  202  A    between atoms: _486  and  _487
REMARK  203  A    between atoms: _486  and  _489
REMARK  204  A    between atoms: _489  and  _490
REMARK  205  A    between atoms: _493  and  _495
REMARK  206  A    between atoms: _495  and  _496
REMARK  207  A    between atoms: _495  and  _498
REMARK  208  A    between atoms: _498  and  _499
REMARK  209  A    between atoms: _503  and  _504
REMARK  210  A    between atoms: _509  and  _511
REMARK  211  A    between atoms: _511  and  _512
REMARK  212  A    between atoms: _511  and  _514
REMARK  213  A    between atoms: _516  and  _518
REMARK  214  A    between atoms: _518  and  _519
REMARK  215  A    between atoms: _518  and  _521
REMARK  216  A    between atoms: _521  and  _522
REMARK  217  A    between atoms: _525  and  _527
REMARK  218  A    between atoms: _527  and  _528
REMARK  219  A    between atoms: _527  and  _530
REMARK  220  A    between atoms: _530  and  _531
REMARK  221  A    between atoms: _531  and  _532
REMARK  222  A    between atoms: _537  and  _539
REMARK  223  A    between atoms: _539  and  _540
REMARK  224  A    between atoms: _539  and  _542
REMARK  225  A    between atoms: _542  and  _543
REMARK  226  A    between atoms: _545  and  _547
REMARK  227  A    between atoms: _547  and  _548
REMARK  228  A    between atoms: _547  and  _550
REMARK  229  A    between atoms: _550  and  _551
REMARK  230  A    between atoms: _555  and  _556
REMARK  231  A    between atoms: _561  and  _563
REMARK  232  A    between atoms: _563  and  _564
REMARK  233  A    between atoms: _563  and  _566
REMARK  234  A    between atoms: _566  and  _567
REMARK  235  A    between atoms: _567  and  _568
REMARK                            x       y       z     vdW  Elec       q    Type
REMARK                         _______ _______ _______ _____ _____    ______ ____
ROOT
ATOM      1  O   HOH     1      12.067  -2.354  23.819  0.00  0.00    +0.000 OA
ENDROOT
TORSDOF 0
REMARK  Name = ../refined-set-2016/3lcv/3lcv_pocket.pdb
REMARK  235 active torsions:
REMARK  status: ('A' for Active; 'I' for Inactive)
REMARK    1  A    between atoms: _1  and  _3
REMARK    2  A    between atoms: _3  and  _4
REMARK    3  A    between atoms: _3  and  _6
REMARK    4  A    between atoms: _9  and  _11
REMARK    5  A    between atoms: _11  and  _12
REMARK    6  A    between atoms: _15  and  _17
REMARK    7  A    between atoms: _17  and  _18
REMARK    8  A    between atoms: _17  and  _20
REMARK    9  A    between atoms: _20  and  _21
REMARK   10  A    between atoms: _24  and  _26
REMARK   11  A    between atoms: _26  and  _27
REMARK   12  A    between atoms: _26  and  _29
REMARK   13  A    between atoms: _29  and  _30
REMARK   14  A    between atoms: _30  and  _31
REMARK   15  A    between atoms: _31  and  _32
REMARK   16  A    between atoms: _41  and  _43
REMARK   17  A    between atoms: _43  and  _44
REMARK   18  A    between atoms: _43  and  _46
REMARK   19  A    between atoms: _46  and  _47
REMARK   20  A    between atoms: _50  and  _52
REMARK   21  A    between atoms: _52  and  _53
REMARK   22  A    between atoms: _55  and  _57
REMARK   23  A    between atoms: _57  and  _58
REMARK   24  A    between atoms: _57  and  _60
REMARK   25  A    between atoms: _60  and  _61
REMARK   26  A    between atoms: _64  and  _66
REMARK   27  A    between atoms: _66  and  _67
REMARK   28  A    between atoms: _66  and  _69
REMARK   29  A    between atoms: _69  and  _70
REMARK   30  A    between atoms: _70  and  _71
REMARK   31  A    between atoms: _74  and  _76
REMARK   32  A    between atoms: _76  and  _77
REMARK   33  A    between atoms: _76  and  _79
REMARK   34  A    between atoms: _79  and  _80
REMARK   35  A    between atoms: _83  and  _85
REMARK   36  A    between atoms: _85  and  _86
REMARK   37  A    between atoms: _85  and  _88
REMARK   38  A    between atoms: _88  and  _89
REMARK   39  A    between atoms: _94  and  _95
REMARK   40  A    between atoms: _97  and  _99
REMARK   41  A    between atoms: _99  and  _100
REMARK   42  A    between atoms: _102  and  _104
REMARK   43  A    between atoms: _104  and  _105
REMARK   44  A    between atoms: _108  and  _110
REMARK   45  A    between atoms: _110  and  _111
REMARK   46  A    between atoms: _110  and  _113
REMARK   47  A    between atoms: _113  and  _114
REMARK   48  A    between atoms: _120  and  _122
REMARK   49  A    between atoms: _122  and  _123
REMARK   50  A    between atoms: _122  and  _125
REMARK   51  A    between atoms: _125  and  _126
REMARK   52  A    between atoms: _129  and  _131
REMARK   53  A    between atoms: _131  and  _132
REMARK   54  A    between atoms: _131  and  _134
REMARK   55  A    between atoms: _134  and  _135
REMARK   56  A    between atoms: _135  and  _136
REMARK   57  A    between atoms: _138  and  _140
REMARK   58  A    between atoms: _140  and  _141
REMARK   59  A    between atoms: _140  and  _143
REMARK   60  A    between atoms: _143  and  _144
REMARK   61  A    between atoms: _149  and  _151
REMARK   62  A    between atoms: _151  and  _152
REMARK   63  A    between atoms: _151  and  _154
REMARK   64  A    between atoms: _154  and  _155
REMARK   65  A    between atoms: _158  and  _160
REMARK   66  A    between atoms: _160  and  _161
REMARK   67  A    between atoms: _160  and  _163
REMARK   68  A    between atoms: _163  and  _164
REMARK   69  A    between atoms: _166  and  _168
REMARK   70  A    between atoms: _168  and  _169
REMARK   71  A    between atoms: _168  and  _171
REMARK   72  A    between atoms: _171  and  _172
REMARK   73  A    between atoms: _175  and  _177
REMARK   74  A    between atoms: _177  and  _178
REMARK   75  A    between atoms: _177  and  _180
REMARK   76  A    between atoms: _180  and  _181
REMARK   77  A    between atoms: _181  and  _182
REMARK   78  A    between atoms: _182  and  _183
REMARK   79  A    between atoms: _192  and  _194
REMARK   80  A    between atoms: _194  and  _195
REMARK   81  A    between atoms: _194  and  _197
REMARK   82  A    between atoms: _197  and  _198
REMARK   83  A    between atoms: _198  and  _199
REMARK   84  A    between atoms: _202  and  _204
REMARK   85  A    between atoms: _204  and  _205
REMARK   86  A    between atoms: _204  and  _207
REMARK   87  A    between atoms: _207  and  _208
REMARK   88  A    between atoms: _208  and  _209
REMARK   89  A    between atoms: _209  and  _210
REMARK   90  A    between atoms: _219  and  _221
REMARK   91  A    between atoms: _221  and  _222
REMARK   92  A    between atoms: _221  and  _224
REMARK   93  A    between atoms: _224  and  _225
REMARK   94  A    between atoms: _228  and  _230
REMARK   95  A    between atoms: _230  and  _231
REMARK   96  A    between atoms: _230  and  _233
REMARK   97  A    between atoms: _233  and  _234
REMARK   98  A    between atoms: _240  and  _242
REMARK   99  A    between atoms: _242  and  _243
REMARK  100  A    between atoms: _242  and  _245
REMARK  101  A    between atoms: _245  and  _246
REMARK  102  A    between atoms: _251  and  _252
REMARK  103  A    between atoms: _254  and  _256
REMARK  104  A    between atoms: _256  and  _257
REMARK  105  A    between atoms: _256  and  _259
REMARK  106  A    between atoms: _259  and  _260
REMARK  107  A    between atoms: _263  and  _265
REMARK  108  A    between atoms: _265  and  _266
REMARK  109  A    between atoms: _265  and  _268
REMARK  110  A    between atoms: _268  and  _269
REMARK  111  A    between atoms: _272  and  _274
REMARK  112  A    between atoms: _274  and  _275
REMARK  113  A    between atoms: _278  and  _280
REMARK  114  A    between atoms: _280  and  _281
REMARK  115  A    between atoms: _280  and  _283
REMARK  116  A    between atoms: _285  and  _287
REMARK  117  A    between atoms: _287  and  _288
REMARK  118  A    between atoms: _290  and  _292
REMARK  119  A    between atoms: _292  and  _293
REMARK  120  A    between atoms: _292  and  _295
REMARK  121  A    between atoms: _295  and  _296
REMARK  122  A    between atoms: _299  and  _301
REMARK  123  A    between atoms: _301  and  _302
REMARK  124  A    between atoms: _301  and  _304
REMARK  125  A    between atoms: _304  and  _305
REMARK  126  A    between atoms: _311  and  _312
REMARK  127  A    between atoms: _317  and  _319
REMARK  128  A    between atoms: _319  and  _320
REMARK  129  A    between atoms: _319  and  _322
REMARK  130  A    between atoms: _322  and  _323
REMARK  131  A    between atoms: _326  and  _328
REMARK  132  A    between atoms: _328  and  _329
REMARK  133  A    between atoms: _328  and  _331
REMARK  134  A    between atoms: _331  and  _332
REMARK  135  A    between atoms: _337  and  _338
REMARK  136  A    between atoms: _340  and  _342
REMARK  137  A    between atoms: _342  and  _343
REMARK  138  A    between atoms: _342  and  _345
REMARK  139  A    between atoms: _345  and  _346
REMARK  140  A    between atoms: _348  and  _350
REMARK  141  A    between atoms: _350  and  _351
REMARK  142  A    between atoms: _350  and  _353
REMARK  143  A    between atoms: _353  and  _354
REMARK  144  A    between atoms: _357  and  _359
REMARK  145  A    between atoms: _359  and  _360
REMARK  146  A    between atoms: _359  and  _362
REMARK  147  A    between atoms: _362  and  _363
REMARK  148  A    between atoms: _366  and  _368
REMARK  149  A    between atoms: _368  and  _369
REMARK  150  A    between atoms: _368  and  _371
REMARK  151  A    between atoms: _371  and  _372
REMARK  152  A    between atoms: _375  and  _377
REMARK  153  A    between atoms: _377  and  _378
REMARK  154  A    between atoms: _377  and  _380
REMARK  155  A    between atoms: _380  and  _381
REMARK  156  A    between atoms: _384  and  _386
REMARK  157  A    between atoms: _386  and  _387
REMARK  158  A    between atoms: _386  and  _389
REMARK  159  A    between atoms: _392  and  _394
REMARK  160  A    between atoms: _394  and  _395
REMARK  161  A    between atoms: _398  and  _400
REMARK  162  A    between atoms: _400  and  _401
REMARK  163  A    between atoms: _400  and  _403
REMARK  164  A    between atoms: _403  and  _404
REMARK  165  A    between atoms: _407  and  _409
REMARK  166  A    between atoms: _409  and  _410
REMARK  167  A    between atoms: _409  and  _412
REMARK  168  A    between atoms: _412  and  _413
REMARK  169  A    between atoms: _416  and  _418
REMARK  170  A    between atoms: _418  and  _419
REMARK  171  A    between atoms: _418  and  _421
REMARK  172  A    between atoms: _421  and  _422
REMARK  173  A    between atoms: _425  and  _427
REMARK  174  A    between atoms: _427  and  _428
REMARK  175  A    between atoms: _427  and  _430
REMARK  176  A    between atoms: _430  and  _431
REMARK  177  A    between atoms: _431  and  _432
REMARK  178  A    between atoms: _435  and  _437
REMARK  179  A    between atoms: _437  and  _438
REMARK  180  A    between atoms: _437  and  _440
REMARK  181  A    between atoms: _440  and  _441
REMARK  182  A    between atoms: _444  and  _446
REMARK  183  A    between atoms: _446  and  _447
REMARK  184  A    between atoms: _446  and  _449
REMARK  185  A    between atoms: _449  and  _450
REMARK  186  A    between atoms: _453  and  _455
REMARK  187  A    between atoms: _455  and  _456
REMARK  188  A    between atoms: _455  and  _458
REMARK  189  A    between atoms: _458  and  _459
REMARK  190  A    between atoms: _462  and  _464
REMARK  191  A    between atoms: _464  and  _465
REMARK  192  A    between atoms: _464  and  _467
REMARK  193  A    between atoms: _467  and  _468
REMARK  194  A    between atoms: _471  and  _473
REMARK  195  A    between atoms: _473  and  _474
REMARK  196  A    between atoms: _473  and  _476
REMARK  197  A    between atoms: _476  and  _477
REMARK  198  A    between atoms: _477  and  _478
REMARK  199  A    between atoms: _478  and  _479
REMARK  200  A    between atoms: _479  and  _480
REMARK  201  A    between atoms: _484  and  _486
REMARK  202  A    between atoms: _486  and  _487
REMARK  203  A    between atoms: _486  and  _489
REMARK  204  A    between atoms: _489  and  _490
REMARK  205  A    between atoms: _493  and  _495
REMARK  206  A    between atoms: _495  and  _496
REMARK  207  A    between atoms: _495  and  _498
REMARK  208  A    between atoms: _498  and  _499
REMARK  209  A    between atoms: _503  and  _504
REMARK  210  A    between atoms: _509  and  _511
REMARK  211  A    between atoms: _511  and  _512
REMARK  212  A    between atoms: _511  and  _514
REMARK  213  A    between atoms: _516  and  _518
REMARK  214  A    between atoms: _518  and  _519
REMARK  215  A    between atoms: _518  and  _521
REMARK  216  A    between atoms: _521  and  _522
REMARK  217  A    between atoms: _525  and  _527
REMARK  218  A    between atoms: _527  and  _528
REMARK  219  A    between atoms: _527  and  _530
REMARK  220  A    between atoms: _530  and  _531
REMARK  221  A    between atoms: _531  and  _532
REMARK  222  A    between atoms: _537  and  _539
REMARK  223  A    between atoms: _539  and  _540
REMARK  224  A    between atoms: _539  and  _542
REMARK  225  A    between atoms: _542  and  _543
REMARK  226  A    between atoms: _545  and  _547
REMARK  227  A    between atoms: _547  and  _548
REMARK  228  A    between atoms: _547  and  _550
REMARK  229  A    between atoms: _550  and  _551
REMARK  230  A    between atoms: _555  and  _556
REMARK  231  A    between atoms: _561  and  _563
REMARK  232  A    between atoms: _563  and  _564
REMARK  233  A    between atoms: _563  and  _566
REMARK  234  A    between atoms: _566  and  _567
REMARK  235  A    between atoms: _567  and  _568
REMARK                            x       y       z     vdW  Elec       q    Type
REMARK                         _______ _______ _______ _____ _____    ______ ____
ROOT
ATOM      1  O   HOH     1      12.862  -6.206  18.219  0.00  0.00    +0.000 OA
ENDROOT
TORSDOF 0
REMARK  Name = ../refined-set-2016/3lcv/3lcv_pocket.pdb
REMARK  235 active torsions:
REMARK  status: ('A' for Active; 'I' for Inactive)
REMARK    1  A    between atoms: _1  and  _3
REMARK    2  A    between atoms: _3  and  _4
REMARK    3  A    between atoms: _3  and  _6
REMARK    4  A    between atoms: _9  and  _11
REMARK    5  A    between atoms: _11  and  _12
REMARK    6  A    between atoms: _15  and  _17
REMARK    7  A    between atoms: _17  and  _18
REMARK    8  A    between atoms: _17  and  _20
REMARK    9  A    between atoms: _20  and  _21
REMARK   10  A    between atoms: _24  and  _26
REMARK   11  A    between atoms: _26  and  _27
REMARK   12  A    between atoms: _26  and  _29
REMARK   13  A    between atoms: _29  and  _30
REMARK   14  A    between atoms: _30  and  _31
REMARK   15  A    between atoms: _31  and  _32
REMARK   16  A    between atoms: _41  and  _43
REMARK   17  A    between atoms: _43  and  _44
REMARK   18  A    between atoms: _43  and  _46
REMARK   19  A    between atoms: _46  and  _47
REMARK   20  A    between atoms: _50  and  _52
REMARK   21  A    between atoms: _52  and  _53
REMARK   22  A    between atoms: _55  and  _57
REMARK   23  A    between atoms: _57  and  _58
REMARK   24  A    between atoms: _57  and  _60
REMARK   25  A    between atoms: _60  and  _61
REMARK   26  A    between atoms: _64  and  _66
REMARK   27  A    between atoms: _66  and  _67
REMARK   28  A    between atoms: _66  and  _69
REMARK   29  A    between atoms: _69  and  _70
REMARK   30  A    between atoms: _70  and  _71
REMARK   31  A    between atoms: _74  and  _76
REMARK   32  A    between atoms: _76  and  _77
REMARK   33  A    between atoms: _76  and  _79
REMARK   34  A    between atoms: _79  and  _80
REMARK   35  A    between atoms: _83  and  _85
REMARK   36  A    between atoms: _85  and  _86
REMARK   37  A    between atoms: _85  and  _88
REMARK   38  A    between atoms: _88  and  _89
REMARK   39  A    between atoms: _94  and  _95
REMARK   40  A    between atoms: _97  and  _99
REMARK   41  A    between atoms: _99  and  _100
REMARK   42  A    between atoms: _102  and  _104
REMARK   43  A    between atoms: _104  and  _105
REMARK   44  A    between atoms: _108  and  _110
REMARK   45  A    between atoms: _110  and  _111
REMARK   46  A    between atoms: _110  and  _113
REMARK   47  A    between atoms: _113  and  _114
REMARK   48  A    between atoms: _120  and  _122
REMARK   49  A    between atoms: _122  and  _123
REMARK   50  A    between atoms: _122  and  _125
REMARK   51  A    between atoms: _125  and  _126
REMARK   52  A    between atoms: _129  and  _131
REMARK   53  A    between atoms: _131  and  _132
REMARK   54  A    between atoms: _131  and  _134
REMARK   55  A    between atoms: _134  and  _135
REMARK   56  A    between atoms: _135  and  _136
REMARK   57  A    between atoms: _138  and  _140
REMARK   58  A    between atoms: _140  and  _141
REMARK   59  A    between atoms: _140  and  _143
REMARK   60  A    between atoms: _143  and  _144
REMARK   61  A    between atoms: _149  and  _151
REMARK   62  A    between atoms: _151  and  _152
REMARK   63  A    between atoms: _151  and  _154
REMARK   64  A    between atoms: _154  and  _155
REMARK   65  A    between atoms: _158  and  _160
REMARK   66  A    between atoms: _160  and  _161
REMARK   67  A    between atoms: _160  and  _163
REMARK   68  A    between atoms: _163  and  _164
REMARK   69  A    between atoms: _166  and  _168
REMARK   70  A    between atoms: _168  and  _169
REMARK   71  A    between atoms: _168  and  _171
REMARK   72  A    between atoms: _171  and  _172
REMARK   73  A    between atoms: _175  and  _177
REMARK   74  A    between atoms: _177  and  _178
REMARK   75  A    between atoms: _177  and  _180
REMARK   76  A    between atoms: _180  and  _181
REMARK   77  A    between atoms: _181  and  _182
REMARK   78  A    between atoms: _182  and  _183
REMARK   79  A    between atoms: _192  and  _194
REMARK   80  A    between atoms: _194  and  _195
REMARK   81  A    between atoms: _194  and  _197
REMARK   82  A    between atoms: _197  and  _198
REMARK   83  A    between atoms: _198  and  _199
REMARK   84  A    between atoms: _202  and  _204
REMARK   85  A    between atoms: _204  and  _205
REMARK   86  A    between atoms: _204  and  _207
REMARK   87  A    between atoms: _207  and  _208
REMARK   88  A    between atoms: _208  and  _209
REMARK   89  A    between atoms: _209  and  _210
REMARK   90  A    between atoms: _219  and  _221
REMARK   91  A    between atoms: _221  and  _222
REMARK   92  A    between atoms: _221  and  _224
REMARK   93  A    between atoms: _224  and  _225
REMARK   94  A    between atoms: _228  and  _230
REMARK   95  A    between atoms: _230  and  _231
REMARK   96  A    between atoms: _230  and  _233
REMARK   97  A    between atoms: _233  and  _234
REMARK   98  A    between atoms: _240  and  _242
REMARK   99  A    between atoms: _242  and  _243
REMARK  100  A    between atoms: _242  and  _245
REMARK  101  A    between atoms: _245  and  _246
REMARK  102  A    between atoms: _251  and  _252
REMARK  103  A    between atoms: _254  and  _256
REMARK  104  A    between atoms: _256  and  _257
REMARK  105  A    between atoms: _256  and  _259
REMARK  106  A    between atoms: _259  and  _260
REMARK  107  A    between atoms: _263  and  _265
REMARK  108  A    between atoms: _265  and  _266
REMARK  109  A    between atoms: _265  and  _268
REMARK  110  A    between atoms: _268  and  _269
REMARK  111  A    between atoms: _272  and  _274
REMARK  112  A    between atoms: _274  and  _275
REMARK  113  A    between atoms: _278  and  _280
REMARK  114  A    between atoms: _280  and  _281
REMARK  115  A    between atoms: _280  and  _283
REMARK  116  A    between atoms: _285  and  _287
REMARK  117  A    between atoms: _287  and  _288
REMARK  118  A    between atoms: _290  and  _292
REMARK  119  A    between atoms: _292  and  _293
REMARK  120  A    between atoms: _292  and  _295
REMARK  121  A    between atoms: _295  and  _296
REMARK  122  A    between atoms: _299  and  _301
REMARK  123  A    between atoms: _301  and  _302
REMARK  124  A    between atoms: _301  and  _304
REMARK  125  A    between atoms: _304  and  _305
REMARK  126  A    between atoms: _311  and  _312
REMARK  127  A    between atoms: _317  and  _319
REMARK  128  A    between atoms: _319  and  _320
REMARK  129  A    between atoms: _319  and  _322
REMARK  130  A    between atoms: _322  and  _323
REMARK  131  A    between atoms: _326  and  _328
REMARK  132  A    between atoms: _328  and  _329
REMARK  133  A    between atoms: _328  and  _331
REMARK  134  A    between atoms: _331  and  _332
REMARK  135  A    between atoms: _337  and  _338
REMARK  136  A    between atoms: _340  and  _342
REMARK  137  A    between atoms: _342  and  _343
REMARK  138  A    between atoms: _342  and  _345
REMARK  139  A    between atoms: _345  and  _346
REMARK  140  A    between atoms: _348  and  _350
REMARK  141  A    between atoms: _350  and  _351
REMARK  142  A    between atoms: _350  and  _353
REMARK  143  A    between atoms: _353  and  _354
REMARK  144  A    between atoms: _357  and  _359
REMARK  145  A    between atoms: _359  and  _360
REMARK  146  A    between atoms: _359  and  _362
REMARK  147  A    between atoms: _362  and  _363
REMARK  148  A    between atoms: _366  and  _368
REMARK  149  A    between atoms: _368  and  _369
REMARK  150  A    between atoms: _368  and  _371
REMARK  151  A    between atoms: _371  and  _372
REMARK  152  A    between atoms: _375  and  _377
REMARK  153  A    between atoms: _377  and  _378
REMARK  154  A    between atoms: _377  and  _380
REMARK  155  A    between atoms: _380  and  _381
REMARK  156  A    between atoms: _384  and  _386
REMARK  157  A    between atoms: _386  and  _387
REMARK  158  A    between atoms: _386  and  _389
REMARK  159  A    between atoms: _392  and  _394
REMARK  160  A    between atoms: _394  and  _395
REMARK  161  A    between atoms: _398  and  _400
REMARK  162  A    between atoms: _400  and  _401
REMARK  163  A    between atoms: _400  and  _403
REMARK  164  A    between atoms: _403  and  _404
REMARK  165  A    between atoms: _407  and  _409
REMARK  166  A    between atoms: _409  and  _410
REMARK  167  A    between atoms: _409  and  _412
REMARK  168  A    between atoms: _412  and  _413
REMARK  169  A    between atoms: _416  and  _418
REMARK  170  A    between atoms: _418  and  _419
REMARK  171  A    between atoms: _418  and  _421
REMARK  172  A    between atoms: _421  and  _422
REMARK  173  A    between atoms: _425  and  _427
REMARK  174  A    between atoms: _427  and  _428
REMARK  175  A    between atoms: _427  and  _430
REMARK  176  A    between atoms: _430  and  _431
REMARK  177  A    between atoms: _431  and  _432
REMARK  178  A    between atoms: _435  and  _437
REMARK  179  A    between atoms: _437  and  _438
REMARK  180  A    between atoms: _437  and  _440
REMARK  181  A    between atoms: _440  and  _441
REMARK  182  A    between atoms: _444  and  _446
REMARK  183  A    between atoms: _446  and  _447
REMARK  184  A    between atoms: _446  and  _449
REMARK  185  A    between atoms: _449  and  _450
REMARK  186  A    between atoms: _453  and  _455
REMARK  187  A    between atoms: _455  and  _456
REMARK  188  A    between atoms: _455  and  _458
REMARK  189  A    between atoms: _458  and  _459
REMARK  190  A    between atoms: _462  and  _464
REMARK  191  A    between atoms: _464  and  _465
REMARK  192  A    between atoms: _464  and  _467
REMARK  193  A    between atoms: _467  and  _468
REMARK  194  A    between atoms: _471  and  _473
REMARK  195  A    between atoms: _473  and  _474
REMARK  196  A    between atoms: _473  and  _476
REMARK  197  A    between atoms: _476  and  _477
REMARK  198  A    between atoms: _477  and  _478
REMARK  199  A    between atoms: _478  and  _479
REMARK  200  A    between atoms: _479  and  _480
REMARK  201  A    between atoms: _484  and  _486
REMARK  202  A    between atoms: _486  and  _487
REMARK  203  A    between atoms: _486  and  _489
REMARK  204  A    between atoms: _489  and  _490
REMARK  205  A    between atoms: _493  and  _495
REMARK  206  A    between atoms: _495  and  _496
REMARK  207  A    between atoms: _495  and  _498
REMARK  208  A    between atoms: _498  and  _499
REMARK  209  A    between atoms: _503  and  _504
REMARK  210  A    between atoms: _509  and  _511
REMARK  211  A    between atoms: _511  and  _512
REMARK  212  A    between atoms: _511  and  _514
REMARK  213  A    between atoms: _516  and  _518
REMARK  214  A    between atoms: _518  and  _519
REMARK  215  A    between atoms: _518  and  _521
REMARK  216  A    between atoms: _521  and  _522
REMARK  217  A    between atoms: _525  and  _527
REMARK  218  A    between atoms: _527  and  _528
REMARK  219  A    between atoms: _527  and  _530
REMARK  220  A    between atoms: _530  and  _531
REMARK  221  A    between atoms: _531  and  _532
REMARK  222  A    between atoms: _537  and  _539
REMARK  223  A    between atoms: _539  and  _540
REMARK  224  A    between atoms: _539  and  _542
REMARK  225  A    between atoms: _542  and  _543
REMARK  226  A    between atoms: _545  and  _547
REMARK  227  A    between atoms: _547  and  _548
REMARK  228  A    between atoms: _547  and  _550
REMARK  229  A    between atoms: _550  and  _551
REMARK  230  A    between atoms: _555  and  _556
REMARK  231  A    between atoms: _561  and  _563
REMARK  232  A    between atoms: _563  and  _564
REMARK  233  A    between atoms: _563  and  _566
REMARK  234  A    between atoms: _566  and  _567
REMARK  235  A    between atoms: _567  and  _568
REMARK                            x       y       z     vdW  Elec       q    Type
REMARK                         _______ _______ _______ _____ _____    ______ ____
ROOT
ATOM      1  O   HOH     1       3.270  -9.162  23.195  0.00  0.00    +0.000 OA
ENDROOT
TORSDOF 0
REMARK  Name = ../refined-set-2016/3lcv/3lcv_pocket.pdb
REMARK  235 active torsions:
REMARK  status: ('A' for Active; 'I' for Inactive)
REMARK    1  A    between atoms: _1  and  _3
REMARK    2  A    between atoms: _3  and  _4
REMARK    3  A    between atoms: _3  and  _6
REMARK    4  A    between atoms: _9  and  _11
REMARK    5  A    between atoms: _11  and  _12
REMARK    6  A    between atoms: _15  and  _17
REMARK    7  A    between atoms: _17  and  _18
REMARK    8  A    between atoms: _17  and  _20
REMARK    9  A    between atoms: _20  and  _21
REMARK   10  A    between atoms: _24  and  _26
REMARK   11  A    between atoms: _26  and  _27
REMARK   12  A    between atoms: _26  and  _29
REMARK   13  A    between atoms: _29  and  _30
REMARK   14  A    between atoms: _30  and  _31
REMARK   15  A    between atoms: _31  and  _32
REMARK   16  A    between atoms: _41  and  _43
REMARK   17  A    between atoms: _43  and  _44
REMARK   18  A    between atoms: _43  and  _46
REMARK   19  A    between atoms: _46  and  _47
REMARK   20  A    between atoms: _50  and  _52
REMARK   21  A    between atoms: _52  and  _53
REMARK   22  A    between atoms: _55  and  _57
REMARK   23  A    between atoms: _57  and  _58
REMARK   24  A    between atoms: _57  and  _60
REMARK   25  A    between atoms: _60  and  _61
REMARK   26  A    between atoms: _64  and  _66
REMARK   27  A    between atoms: _66  and  _67
REMARK   28  A    between atoms: _66  and  _69
REMARK   29  A    between atoms: _69  and  _70
REMARK   30  A    between atoms: _70  and  _71
REMARK   31  A    between atoms: _74  and  _76
REMARK   32  A    between atoms: _76  and  _77
REMARK   33  A    between atoms: _76  and  _79
REMARK   34  A    between atoms: _79  and  _80
REMARK   35  A    between atoms: _83  and  _85
REMARK   36  A    between atoms: _85  and  _86
REMARK   37  A    between atoms: _85  and  _88
REMARK   38  A    between atoms: _88  and  _89
REMARK   39  A    between atoms: _94  and  _95
REMARK   40  A    between atoms: _97  and  _99
REMARK   41  A    between atoms: _99  and  _100
REMARK   42  A    between atoms: _102  and  _104
REMARK   43  A    between atoms: _104  and  _105
REMARK   44  A    between atoms: _108  and  _110
REMARK   45  A    between atoms: _110  and  _111
REMARK   46  A    between atoms: _110  and  _113
REMARK   47  A    between atoms: _113  and  _114
REMARK   48  A    between atoms: _120  and  _122
REMARK   49  A    between atoms: _122  and  _123
REMARK   50  A    between atoms: _122  and  _125
REMARK   51  A    between atoms: _125  and  _126
REMARK   52  A    between atoms: _129  and  _131
REMARK   53  A    between atoms: _131  and  _132
REMARK   54  A    between atoms: _131  and  _134
REMARK   55  A    between atoms: _134  and  _135
REMARK   56  A    between atoms: _135  and  _136
REMARK   57  A    between atoms: _138  and  _140
REMARK   58  A    between atoms: _140  and  _141
REMARK   59  A    between atoms: _140  and  _143
REMARK   60  A    between atoms: _143  and  _144
REMARK   61  A    between atoms: _149  and  _151
REMARK   62  A    between atoms: _151  and  _152
REMARK   63  A    between atoms: _151  and  _154
REMARK   64  A    between atoms: _154  and  _155
REMARK   65  A    between atoms: _158  and  _160
REMARK   66  A    between atoms: _160  and  _161
REMARK   67  A    between atoms: _160  and  _163
REMARK   68  A    between atoms: _163  and  _164
REMARK   69  A    between atoms: _166  and  _168
REMARK   70  A    between atoms: _168  and  _169
REMARK   71  A    between atoms: _168  and  _171
REMARK   72  A    between atoms: _171  and  _172
REMARK   73  A    between atoms: _175  and  _177
REMARK   74  A    between atoms: _177  and  _178
REMARK   75  A    between atoms: _177  and  _180
REMARK   76  A    between atoms: _180  and  _181
REMARK   77  A    between atoms: _181  and  _182
REMARK   78  A    between atoms: _182  and  _183
REMARK   79  A    between atoms: _192  and  _194
REMARK   80  A    between atoms: _194  and  _195
REMARK   81  A    between atoms: _194  and  _197
REMARK   82  A    between atoms: _197  and  _198
REMARK   83  A    between atoms: _198  and  _199
REMARK   84  A    between atoms: _202  and  _204
REMARK   85  A    between atoms: _204  and  _205
REMARK   86  A    between atoms: _204  and  _207
REMARK   87  A    between atoms: _207  and  _208
REMARK   88  A    between atoms: _208  and  _209
REMARK   89  A    between atoms: _209  and  _210
REMARK   90  A    between atoms: _219  and  _221
REMARK   91  A    between atoms: _221  and  _222
REMARK   92  A    between atoms: _221  and  _224
REMARK   93  A    between atoms: _224  and  _225
REMARK   94  A    between atoms: _228  and  _230
REMARK   95  A    between atoms: _230  and  _231
REMARK   96  A    between atoms: _230  and  _233
REMARK   97  A    between atoms: _233  and  _234
REMARK   98  A    between atoms: _240  and  _242
REMARK   99  A    between atoms: _242  and  _243
REMARK  100  A    between atoms: _242  and  _245
REMARK  101  A    between atoms: _245  and  _246
REMARK  102  A    between atoms: _251  and  _252
REMARK  103  A    between atoms: _254  and  _256
REMARK  104  A    between atoms: _256  and  _257
REMARK  105  A    between atoms: _256  and  _259
REMARK  106  A    between atoms: _259  and  _260
REMARK  107  A    between atoms: _263  and  _265
REMARK  108  A    between atoms: _265  and  _266
REMARK  109  A    between atoms: _265  and  _268
REMARK  110  A    between atoms: _268  and  _269
REMARK  111  A    between atoms: _272  and  _274
REMARK  112  A    between atoms: _274  and  _275
REMARK  113  A    between atoms: _278  and  _280
REMARK  114  A    between atoms: _280  and  _281
REMARK  115  A    between atoms: _280  and  _283
REMARK  116  A    between atoms: _285  and  _287
REMARK  117  A    between atoms: _287  and  _288
REMARK  118  A    between atoms: _290  and  _292
REMARK  119  A    between atoms: _292  and  _293
REMARK  120  A    between atoms: _292  and  _295
REMARK  121  A    between atoms: _295  and  _296
REMARK  122  A    between atoms: _299  and  _301
REMARK  123  A    between atoms: _301  and  _302
REMARK  124  A    between atoms: _301  and  _304
REMARK  125  A    between atoms: _304  and  _305
REMARK  126  A    between atoms: _311  and  _312
REMARK  127  A    between atoms: _317  and  _319
REMARK  128  A    between atoms: _319  and  _320
REMARK  129  A    between atoms: _319  and  _322
REMARK  130  A    between atoms: _322  and  _323
REMARK  131  A    between atoms: _326  and  _328
REMARK  132  A    between atoms: _328  and  _329
REMARK  133  A    between atoms: _328  and  _331
REMARK  134  A    between atoms: _331  and  _332
REMARK  135  A    between atoms: _337  and  _338
REMARK  136  A    between atoms: _340  and  _342
REMARK  137  A    between atoms: _342  and  _343
REMARK  138  A    between atoms: _342  and  _345
REMARK  139  A    between atoms: _345  and  _346
REMARK  140  A    between atoms: _348  and  _350
REMARK  141  A    between atoms: _350  and  _351
REMARK  142  A    between atoms: _350  and  _353
REMARK  143  A    between atoms: _353  and  _354
REMARK  144  A    between atoms: _357  and  _359
REMARK  145  A    between atoms: _359  and  _360
REMARK  146  A    between atoms: _359  and  _362
REMARK  147  A    between atoms: _362  and  _363
REMARK  148  A    between atoms: _366  and  _368
REMARK  149  A    between atoms: _368  and  _369
REMARK  150  A    between atoms: _368  and  _371
REMARK  151  A    between atoms: _371  and  _372
REMARK  152  A    between atoms: _375  and  _377
REMARK  153  A    between atoms: _377  and  _378
REMARK  154  A    between atoms: _377  and  _380
REMARK  155  A    between atoms: _380  and  _381
REMARK  156  A    between atoms: _384  and  _386
REMARK  157  A    between atoms: _386  and  _387
REMARK  158  A    between atoms: _386  and  _389
REMARK  159  A    between atoms: _392  and  _394
REMARK  160  A    between atoms: _394  and  _395
REMARK  161  A    between atoms: _398  and  _400
REMARK  162  A    between atoms: _400  and  _401
REMARK  163  A    between atoms: _400  and  _403
REMARK  164  A    between atoms: _403  and  _404
REMARK  165  A    between atoms: _407  and  _409
REMARK  166  A    between atoms: _409  and  _410
REMARK  167  A    between atoms: _409  and  _412
REMARK  168  A    between atoms: _412  and  _413
REMARK  169  A    between atoms: _416  and  _418
REMARK  170  A    between atoms: _418  and  _419
REMARK  171  A    between atoms: _418  and  _421
REMARK  172  A    between atoms: _421  and  _422
REMARK  173  A    between atoms: _425  and  _427
REMARK  174  A    between atoms: _427  and  _428
REMARK  175  A    between atoms: _427  and  _430
REMARK  176  A    between atoms: _430  and  _431
REMARK  177  A    between atoms: _431  and  _432
REMARK  178  A    between atoms: _435  and  _437
REMARK  179  A    between atoms: _437  and  _438
REMARK  180  A    between atoms: _437  and  _440
REMARK  181  A    between atoms: _440  and  _441
REMARK  182  A    between atoms: _444  and  _446
REMARK  183  A    between atoms: _446  and  _447
REMARK  184  A    between atoms: _446  and  _449
REMARK  185  A    between atoms: _449  and  _450
REMARK  186  A    between atoms: _453  and  _455
REMARK  187  A    between atoms: _455  and  _456
REMARK  188  A    between atoms: _455  and  _458
REMARK  189  A    between atoms: _458  and  _459
REMARK  190  A    between atoms: _462  and  _464
REMARK  191  A    between atoms: _464  and  _465
REMARK  192  A    between atoms: _464  and  _467
REMARK  193  A    between atoms: _467  and  _468
REMARK  194  A    between atoms: _471  and  _473
REMARK  195  A    between atoms: _473  and  _474
REMARK  196  A    between atoms: _473  and  _476
REMARK  197  A    between atoms: _476  and  _477
REMARK  198  A    between atoms: _477  and  _478
REMARK  199  A    between atoms: _478  and  _479
REMARK  200  A    between atoms: _479  and  _480
REMARK  201  A    between atoms: _484  and  _486
REMARK  202  A    between atoms: _486  and  _487
REMARK  203  A    between atoms: _486  and  _489
REMARK  204  A    between atoms: _489  and  _490
REMARK  205  A    between atoms: _493  and  _495
REMARK  206  A    between atoms: _495  and  _496
REMARK  207  A    between atoms: _495  and  _498
REMARK  208  A    between atoms: _498  and  _499
REMARK  209  A    between atoms: _503  and  _504
REMARK  210  A    between atoms: _509  and  _511
REMARK  211  A    between atoms: _511  and  _512
REMARK  212  A    between atoms: _511  and  _514
REMARK  213  A    between atoms: _516  and  _518
REMARK  214  A    between atoms: _518  and  _519
REMARK  215  A    between atoms: _518  and  _521
REMARK  216  A    between atoms: _521  and  _522
REMARK  217  A    between atoms: _525  and  _527
REMARK  218  A    between atoms: _527  and  _528
REMARK  219  A    between atoms: _527  and  _530
REMARK  220  A    between atoms: _530  and  _531
REMARK  221  A    between atoms: _531  and  _532
REMARK  222  A    between atoms: _537  and  _539
REMARK  223  A    between atoms: _539  and  _540
REMARK  224  A    between atoms: _539  and  _542
REMARK  225  A    between atoms: _542  and  _543
REMARK  226  A    between atoms: _545  and  _547
REMARK  227  A    between atoms: _547  and  _548
REMARK  228  A    between atoms: _547  and  _550
REMARK  229  A    between atoms: _550  and  _551
REMARK  230  A    between atoms: _555  and  _556
REMARK  231  A    between atoms: _561  and  _563
REMARK  232  A    between atoms: _563  and  _564
REMARK  233  A    between atoms: _563  and  _566
REMARK  234  A    between atoms: _566  and  _567
REMARK  235  A    between atoms: _567  and  _568
REMARK                            x       y       z     vdW  Elec       q    Type
REMARK                         _______ _______ _______ _____ _____    ______ ____
ROOT
ATOM      1  O   HOH     1      14.707   5.005  21.644  0.00  0.00    +0.000 OA
ENDROOT
TORSDOF 0
REMARK  Name = ../refined-set-2016/3lcv/3lcv_pocket.pdb
REMARK  235 active torsions:
REMARK  status: ('A' for Active; 'I' for Inactive)
REMARK    1  A    between atoms: _1  and  _3
REMARK    2  A    between atoms: _3  and  _4
REMARK    3  A    between atoms: _3  and  _6
REMARK    4  A    between atoms: _9  and  _11
REMARK    5  A    between atoms: _11  and  _12
REMARK    6  A    between atoms: _15  and  _17
REMARK    7  A    between atoms: _17  and  _18
REMARK    8  A    between atoms: _17  and  _20
REMARK    9  A    between atoms: _20  and  _21
REMARK   10  A    between atoms: _24  and  _26
REMARK   11  A    between atoms: _26  and  _27
REMARK   12  A    between atoms: _26  and  _29
REMARK   13  A    between atoms: _29  and  _30
REMARK   14  A    between atoms: _30  and  _31
REMARK   15  A    between atoms: _31  and  _32
REMARK   16  A    between atoms: _41  and  _43
REMARK   17  A    between atoms: _43  and  _44
REMARK   18  A    between atoms: _43  and  _46
REMARK   19  A    between atoms: _46  and  _47
REMARK   20  A    between atoms: _50  and  _52
REMARK   21  A    between atoms: _52  and  _53
REMARK   22  A    between atoms: _55  and  _57
REMARK   23  A    between atoms: _57  and  _58
REMARK   24  A    between atoms: _57  and  _60
REMARK   25  A    between atoms: _60  and  _61
REMARK   26  A    between atoms: _64  and  _66
REMARK   27  A    between atoms: _66  and  _67
REMARK   28  A    between atoms: _66  and  _69
REMARK   29  A    between atoms: _69  and  _70
REMARK   30  A    between atoms: _70  and  _71
REMARK   31  A    between atoms: _74  and  _76
REMARK   32  A    between atoms: _76  and  _77
REMARK   33  A    between atoms: _76  and  _79
REMARK   34  A    between atoms: _79  and  _80
REMARK   35  A    between atoms: _83  and  _85
REMARK   36  A    between atoms: _85  and  _86
REMARK   37  A    between atoms: _85  and  _88
REMARK   38  A    between atoms: _88  and  _89
REMARK   39  A    between atoms: _94  and  _95
REMARK   40  A    between atoms: _97  and  _99
REMARK   41  A    between atoms: _99  and  _100
REMARK   42  A    between atoms: _102  and  _104
REMARK   43  A    between atoms: _104  and  _105
REMARK   44  A    between atoms: _108  and  _110
REMARK   45  A    between atoms: _110  and  _111
REMARK   46  A    between atoms: _110  and  _113
REMARK   47  A    between atoms: _113  and  _114
REMARK   48  A    between atoms: _120  and  _122
REMARK   49  A    between atoms: _122  and  _123
REMARK   50  A    between atoms: _122  and  _125
REMARK   51  A    between atoms: _125  and  _126
REMARK   52  A    between atoms: _129  and  _131
REMARK   53  A    between atoms: _131  and  _132
REMARK   54  A    between atoms: _131  and  _134
REMARK   55  A    between atoms: _134  and  _135
REMARK   56  A    between atoms: _135  and  _136
REMARK   57  A    between atoms: _138  and  _140
REMARK   58  A    between atoms: _140  and  _141
REMARK   59  A    between atoms: _140  and  _143
REMARK   60  A    between atoms: _143  and  _144
REMARK   61  A    between atoms: _149  and  _151
REMARK   62  A    between atoms: _151  and  _152
REMARK   63  A    between atoms: _151  and  _154
REMARK   64  A    between atoms: _154  and  _155
REMARK   65  A    between atoms: _158  and  _160
REMARK   66  A    between atoms: _160  and  _161
REMARK   67  A    between atoms: _160  and  _163
REMARK   68  A    between atoms: _163  and  _164
REMARK   69  A    between atoms: _166  and  _168
REMARK   70  A    between atoms: _168  and  _169
REMARK   71  A    between atoms: _168  and  _171
REMARK   72  A    between atoms: _171  and  _172
REMARK   73  A    between atoms: _175  and  _177
REMARK   74  A    between atoms: _177  and  _178
REMARK   75  A    between atoms: _177  and  _180
REMARK   76  A    between atoms: _180  and  _181
REMARK   77  A    between atoms: _181  and  _182
REMARK   78  A    between atoms: _182  and  _183
REMARK   79  A    between atoms: _192  and  _194
REMARK   80  A    between atoms: _194  and  _195
REMARK   81  A    between atoms: _194  and  _197
REMARK   82  A    between atoms: _197  and  _198
REMARK   83  A    between atoms: _198  and  _199
REMARK   84  A    between atoms: _202  and  _204
REMARK   85  A    between atoms: _204  and  _205
REMARK   86  A    between atoms: _204  and  _207
REMARK   87  A    between atoms: _207  and  _208
REMARK   88  A    between atoms: _208  and  _209
REMARK   89  A    between atoms: _209  and  _210
REMARK   90  A    between atoms: _219  and  _221
REMARK   91  A    between atoms: _221  and  _222
REMARK   92  A    between atoms: _221  and  _224
REMARK   93  A    between atoms: _224  and  _225
REMARK   94  A    between atoms: _228  and  _230
REMARK   95  A    between atoms: _230  and  _231
REMARK   96  A    between atoms: _230  and  _233
REMARK   97  A    between atoms: _233  and  _234
REMARK   98  A    between atoms: _240  and  _242
REMARK   99  A    between atoms: _242  and  _243
REMARK  100  A    between atoms: _242  and  _245
REMARK  101  A    between atoms: _245  and  _246
REMARK  102  A    between atoms: _251  and  _252
REMARK  103  A    between atoms: _254  and  _256
REMARK  104  A    between atoms: _256  and  _257
REMARK  105  A    between atoms: _256  and  _259
REMARK  106  A    between atoms: _259  and  _260
REMARK  107  A    between atoms: _263  and  _265
REMARK  108  A    between atoms: _265  and  _266
REMARK  109  A    between atoms: _265  and  _268
REMARK  110  A    between atoms: _268  and  _269
REMARK  111  A    between atoms: _272  and  _274
REMARK  112  A    between atoms: _274  and  _275
REMARK  113  A    between atoms: _278  and  _280
REMARK  114  A    between atoms: _280  and  _281
REMARK  115  A    between atoms: _280  and  _283
REMARK  116  A    between atoms: _285  and  _287
REMARK  117  A    between atoms: _287  and  _288
REMARK  118  A    between atoms: _290  and  _292
REMARK  119  A    between atoms: _292  and  _293
REMARK  120  A    between atoms: _292  and  _295
REMARK  121  A    between atoms: _295  and  _296
REMARK  122  A    between atoms: _299  and  _301
REMARK  123  A    between atoms: _301  and  _302
REMARK  124  A    between atoms: _301  and  _304
REMARK  125  A    between atoms: _304  and  _305
REMARK  126  A    between atoms: _311  and  _312
REMARK  127  A    between atoms: _317  and  _319
REMARK  128  A    between atoms: _319  and  _320
REMARK  129  A    between atoms: _319  and  _322
REMARK  130  A    between atoms: _322  and  _323
REMARK  131  A    between atoms: _326  and  _328
REMARK  132  A    between atoms: _328  and  _329
REMARK  133  A    between atoms: _328  and  _331
REMARK  134  A    between atoms: _331  and  _332
REMARK  135  A    between atoms: _337  and  _338
REMARK  136  A    between atoms: _340  and  _342
REMARK  137  A    between atoms: _342  and  _343
REMARK  138  A    between atoms: _342  and  _345
REMARK  139  A    between atoms: _345  and  _346
REMARK  140  A    between atoms: _348  and  _350
REMARK  141  A    between atoms: _350  and  _351
REMARK  142  A    between atoms: _350  and  _353
REMARK  143  A    between atoms: _353  and  _354
REMARK  144  A    between atoms: _357  and  _359
REMARK  145  A    between atoms: _359  and  _360
REMARK  146  A    between atoms: _359  and  _362
REMARK  147  A    between atoms: _362  and  _363
REMARK  148  A    between atoms: _366  and  _368
REMARK  149  A    between atoms: _368  and  _369
REMARK  150  A    between atoms: _368  and  _371
REMARK  151  A    between atoms: _371  and  _372
REMARK  152  A    between atoms: _375  and  _377
REMARK  153  A    between atoms: _377  and  _378
REMARK  154  A    between atoms: _377  and  _380
REMARK  155  A    between atoms: _380  and  _381
REMARK  156  A    between atoms: _384  and  _386
REMARK  157  A    between atoms: _386  and  _387
REMARK  158  A    between atoms: _386  and  _389
REMARK  159  A    between atoms: _392  and  _394
REMARK  160  A    between atoms: _394  and  _395
REMARK  161  A    between atoms: _398  and  _400
REMARK  162  A    between atoms: _400  and  _401
REMARK  163  A    between atoms: _400  and  _403
REMARK  164  A    between atoms: _403  and  _404
REMARK  165  A    between atoms: _407  and  _409
REMARK  166  A    between atoms: _409  and  _410
REMARK  167  A    between atoms: _409  and  _412
REMARK  168  A    between atoms: _412  and  _413
REMARK  169  A    between atoms: _416  and  _418
REMARK  170  A    between atoms: _418  and  _419
REMARK  171  A    between atoms: _418  and  _421
REMARK  172  A    between atoms: _421  and  _422
REMARK  173  A    between atoms: _425  and  _427
REMARK  174  A    between atoms: _427  and  _428
REMARK  175  A    between atoms: _427  and  _430
REMARK  176  A    between atoms: _430  and  _431
REMARK  177  A    between atoms: _431  and  _432
REMARK  178  A    between atoms: _435  and  _437
REMARK  179  A    between atoms: _437  and  _438
REMARK  180  A    between atoms: _437  and  _440
REMARK  181  A    between atoms: _440  and  _441
REMARK  182  A    between atoms: _444  and  _446
REMARK  183  A    between atoms: _446  and  _447
REMARK  184  A    between atoms: _446  and  _449
REMARK  185  A    between atoms: _449  and  _450
REMARK  186  A    between atoms: _453  and  _455
REMARK  187  A    between atoms: _455  and  _456
REMARK  188  A    between atoms: _455  and  _458
REMARK  189  A    between atoms: _458  and  _459
REMARK  190  A    between atoms: _462  and  _464
REMARK  191  A    between atoms: _464  and  _465
REMARK  192  A    between atoms: _464  and  _467
REMARK  193  A    between atoms: _467  and  _468
REMARK  194  A    between atoms: _471  and  _473
REMARK  195  A    between atoms: _473  and  _474
REMARK  196  A    between atoms: _473  and  _476
REMARK  197  A    between atoms: _476  and  _477
REMARK  198  A    between atoms: _477  and  _478
REMARK  199  A    between atoms: _478  and  _479
REMARK  200  A    between atoms: _479  and  _480
REMARK  201  A    between atoms: _484  and  _486
REMARK  202  A    between atoms: _486  and  _487
REMARK  203  A    between atoms: _486  and  _489
REMARK  204  A    between atoms: _489  and  _490
REMARK  205  A    between atoms: _493  and  _495
REMARK  206  A    between atoms: _495  and  _496
REMARK  207  A    between atoms: _495  and  _498
REMARK  208  A    between atoms: _498  and  _499
REMARK  209  A    between atoms: _503  and  _504
REMARK  210  A    between atoms: _509  and  _511
REMARK  211  A    between atoms: _511  and  _512
REMARK  212  A    between atoms: _511  and  _514
REMARK  213  A    between atoms: _516  and  _518
REMARK  214  A    between atoms: _518  and  _519
REMARK  215  A    between atoms: _518  and  _521
REMARK  216  A    between atoms: _521  and  _522
REMARK  217  A    between atoms: _525  and  _527
REMARK  218  A    between atoms: _527  and  _528
REMARK  219  A    between atoms: _527  and  _530
REMARK  220  A    between atoms: _530  and  _531
REMARK  221  A    between atoms: _531  and  _532
REMARK  222  A    between atoms: _537  and  _539
REMARK  223  A    between atoms: _539  and  _540
REMARK  224  A    between atoms: _539  and  _542
REMARK  225  A    between atoms: _542  and  _543
REMARK  226  A    between atoms: _545  and  _547
REMARK  227  A    between atoms: _547  and  _548
REMARK  228  A    between atoms: _547  and  _550
REMARK  229  A    between atoms: _550  and  _551
REMARK  230  A    between atoms: _555  and  _556
REMARK  231  A    between atoms: _561  and  _563
REMARK  232  A    between atoms: _563  and  _564
REMARK  233  A    between atoms: _563  and  _566
REMARK  234  A    between atoms: _566  and  _567
REMARK  235  A    between atoms: _567  and  _568
REMARK                            x       y       z     vdW  Elec       q    Type
REMARK                         _______ _______ _______ _____ _____    ______ ____
ROOT
ATOM      1  O   HOH     1       2.549  -0.591  11.243  0.00  0.00    +0.000 OA
ENDROOT
TORSDOF 0
REMARK  Name = ../refined-set-2016/3lcv/3lcv_pocket.pdb
REMARK  235 active torsions:
REMARK  status: ('A' for Active; 'I' for Inactive)
REMARK    1  A    between atoms: _1  and  _3
REMARK    2  A    between atoms: _3  and  _4
REMARK    3  A    between atoms: _3  and  _6
REMARK    4  A    between atoms: _9  and  _11
REMARK    5  A    between atoms: _11  and  _12
REMARK    6  A    between atoms: _15  and  _17
REMARK    7  A    between atoms: _17  and  _18
REMARK    8  A    between atoms: _17  and  _20
REMARK    9  A    between atoms: _20  and  _21
REMARK   10  A    between atoms: _24  and  _26
REMARK   11  A    between atoms: _26  and  _27
REMARK   12  A    between atoms: _26  and  _29
REMARK   13  A    between atoms: _29  and  _30
REMARK   14  A    between atoms: _30  and  _31
REMARK   15  A    between atoms: _31  and  _32
REMARK   16  A    between atoms: _41  and  _43
REMARK   17  A    between atoms: _43  and  _44
REMARK   18  A    between atoms: _43  and  _46
REMARK   19  A    between atoms: _46  and  _47
REMARK   20  A    between atoms: _50  and  _52
REMARK   21  A    between atoms: _52  and  _53
REMARK   22  A    between atoms: _55  and  _57
REMARK   23  A    between atoms: _57  and  _58
REMARK   24  A    between atoms: _57  and  _60
REMARK   25  A    between atoms: _60  and  _61
REMARK   26  A    between atoms: _64  and  _66
REMARK   27  A    between atoms: _66  and  _67
REMARK   28  A    between atoms: _66  and  _69
REMARK   29  A    between atoms: _69  and  _70
REMARK   30  A    between atoms: _70  and  _71
REMARK   31  A    between atoms: _74  and  _76
REMARK   32  A    between atoms: _76  and  _77
REMARK   33  A    between atoms: _76  and  _79
REMARK   34  A    between atoms: _79  and  _80
REMARK   35  A    between atoms: _83  and  _85
REMARK   36  A    between atoms: _85  and  _86
REMARK   37  A    between atoms: _85  and  _88
REMARK   38  A    between atoms: _88  and  _89
REMARK   39  A    between atoms: _94  and  _95
REMARK   40  A    between atoms: _97  and  _99
REMARK   41  A    between atoms: _99  and  _100
REMARK   42  A    between atoms: _102  and  _104
REMARK   43  A    between atoms: _104  and  _105
REMARK   44  A    between atoms: _108  and  _110
REMARK   45  A    between atoms: _110  and  _111
REMARK   46  A    between atoms: _110  and  _113
REMARK   47  A    between atoms: _113  and  _114
REMARK   48  A    between atoms: _120  and  _122
REMARK   49  A    between atoms: _122  and  _123
REMARK   50  A    between atoms: _122  and  _125
REMARK   51  A    between atoms: _125  and  _126
REMARK   52  A    between atoms: _129  and  _131
REMARK   53  A    between atoms: _131  and  _132
REMARK   54  A    between atoms: _131  and  _134
REMARK   55  A    between atoms: _134  and  _135
REMARK   56  A    between atoms: _135  and  _136
REMARK   57  A    between atoms: _138  and  _140
REMARK   58  A    between atoms: _140  and  _141
REMARK   59  A    between atoms: _140  and  _143
REMARK   60  A    between atoms: _143  and  _144
REMARK   61  A    between atoms: _149  and  _151
REMARK   62  A    between atoms: _151  and  _152
REMARK   63  A    between atoms: _151  and  _154
REMARK   64  A    between atoms: _154  and  _155
REMARK   65  A    between atoms: _158  and  _160
REMARK   66  A    between atoms: _160  and  _161
REMARK   67  A    between atoms: _160  and  _163
REMARK   68  A    between atoms: _163  and  _164
REMARK   69  A    between atoms: _166  and  _168
REMARK   70  A    between atoms: _168  and  _169
REMARK   71  A    between atoms: _168  and  _171
REMARK   72  A    between atoms: _171  and  _172
REMARK   73  A    between atoms: _175  and  _177
REMARK   74  A    between atoms: _177  and  _178
REMARK   75  A    between atoms: _177  and  _180
REMARK   76  A    between atoms: _180  and  _181
REMARK   77  A    between atoms: _181  and  _182
REMARK   78  A    between atoms: _182  and  _183
REMARK   79  A    between atoms: _192  and  _194
REMARK   80  A    between atoms: _194  and  _195
REMARK   81  A    between atoms: _194  and  _197
REMARK   82  A    between atoms: _197  and  _198
REMARK   83  A    between atoms: _198  and  _199
REMARK   84  A    between atoms: _202  and  _204
REMARK   85  A    between atoms: _204  and  _205
REMARK   86  A    between atoms: _204  and  _207
REMARK   87  A    between atoms: _207  and  _208
REMARK   88  A    between atoms: _208  and  _209
REMARK   89  A    between atoms: _209  and  _210
REMARK   90  A    between atoms: _219  and  _221
REMARK   91  A    between atoms: _221  and  _222
REMARK   92  A    between atoms: _221  and  _224
REMARK   93  A    between atoms: _224  and  _225
REMARK   94  A    between atoms: _228  and  _230
REMARK   95  A    between atoms: _230  and  _231
REMARK   96  A    between atoms: _230  and  _233
REMARK   97  A    between atoms: _233  and  _234
REMARK   98  A    between atoms: _240  and  _242
REMARK   99  A    between atoms: _242  and  _243
REMARK  100  A    between atoms: _242  and  _245
REMARK  101  A    between atoms: _245  and  _246
REMARK  102  A    between atoms: _251  and  _252
REMARK  103  A    between atoms: _254  and  _256
REMARK  104  A    between atoms: _256  and  _257
REMARK  105  A    between atoms: _256  and  _259
REMARK  106  A    between atoms: _259  and  _260
REMARK  107  A    between atoms: _263  and  _265
REMARK  108  A    between atoms: _265  and  _266
REMARK  109  A    between atoms: _265  and  _268
REMARK  110  A    between atoms: _268  and  _269
REMARK  111  A    between atoms: _272  and  _274
REMARK  112  A    between atoms: _274  and  _275
REMARK  113  A    between atoms: _278  and  _280
REMARK  114  A    between atoms: _280  and  _281
REMARK  115  A    between atoms: _280  and  _283
REMARK  116  A    between atoms: _285  and  _287
REMARK  117  A    between atoms: _287  and  _288
REMARK  118  A    between atoms: _290  and  _292
REMARK  119  A    between atoms: _292  and  _293
REMARK  120  A    between atoms: _292  and  _295
REMARK  121  A    between atoms: _295  and  _296
REMARK  122  A    between atoms: _299  and  _301
REMARK  123  A    between atoms: _301  and  _302
REMARK  124  A    between atoms: _301  and  _304
REMARK  125  A    between atoms: _304  and  _305
REMARK  126  A    between atoms: _311  and  _312
REMARK  127  A    between atoms: _317  and  _319
REMARK  128  A    between atoms: _319  and  _320
REMARK  129  A    between atoms: _319  and  _322
REMARK  130  A    between atoms: _322  and  _323
REMARK  131  A    between atoms: _326  and  _328
REMARK  132  A    between atoms: _328  and  _329
REMARK  133  A    between atoms: _328  and  _331
REMARK  134  A    between atoms: _331  and  _332
REMARK  135  A    between atoms: _337  and  _338
REMARK  136  A    between atoms: _340  and  _342
REMARK  137  A    between atoms: _342  and  _343
REMARK  138  A    between atoms: _342  and  _345
REMARK  139  A    between atoms: _345  and  _346
REMARK  140  A    between atoms: _348  and  _350
REMARK  141  A    between atoms: _350  and  _351
REMARK  142  A    between atoms: _350  and  _353
REMARK  143  A    between atoms: _353  and  _354
REMARK  144  A    between atoms: _357  and  _359
REMARK  145  A    between atoms: _359  and  _360
REMARK  146  A    between atoms: _359  and  _362
REMARK  147  A    between atoms: _362  and  _363
REMARK  148  A    between atoms: _366  and  _368
REMARK  149  A    between atoms: _368  and  _369
REMARK  150  A    between atoms: _368  and  _371
REMARK  151  A    between atoms: _371  and  _372
REMARK  152  A    between atoms: _375  and  _377
REMARK  153  A    between atoms: _377  and  _378
REMARK  154  A    between atoms: _377  and  _380
REMARK  155  A    between atoms: _380  and  _381
REMARK  156  A    between atoms: _384  and  _386
REMARK  157  A    between atoms: _386  and  _387
REMARK  158  A    between atoms: _386  and  _389
REMARK  159  A    between atoms: _392  and  _394
REMARK  160  A    between atoms: _394  and  _395
REMARK  161  A    between atoms: _398  and  _400
REMARK  162  A    between atoms: _400  and  _401
REMARK  163  A    between atoms: _400  and  _403
REMARK  164  A    between atoms: _403  and  _404
REMARK  165  A    between atoms: _407  and  _409
REMARK  166  A    between atoms: _409  and  _410
REMARK  167  A    between atoms: _409  and  _412
REMARK  168  A    between atoms: _412  and  _413
REMARK  169  A    between atoms: _416  and  _418
REMARK  170  A    between atoms: _418  and  _419
REMARK  171  A    between atoms: _418  and  _421
REMARK  172  A    between atoms: _421  and  _422
REMARK  173  A    between atoms: _425  and  _427
REMARK  174  A    between atoms: _427  and  _428
REMARK  175  A    between atoms: _427  and  _430
REMARK  176  A    between atoms: _430  and  _431
REMARK  177  A    between atoms: _431  and  _432
REMARK  178  A    between atoms: _435  and  _437
REMARK  179  A    between atoms: _437  and  _438
REMARK  180  A    between atoms: _437  and  _440
REMARK  181  A    between atoms: _440  and  _441
REMARK  182  A    between atoms: _444  and  _446
REMARK  183  A    between atoms: _446  and  _447
REMARK  184  A    between atoms: _446  and  _449
REMARK  185  A    between atoms: _449  and  _450
REMARK  186  A    between atoms: _453  and  _455
REMARK  187  A    between atoms: _455  and  _456
REMARK  188  A    between atoms: _455  and  _458
REMARK  189  A    between atoms: _458  and  _459
REMARK  190  A    between atoms: _462  and  _464
REMARK  191  A    between atoms: _464  and  _465
REMARK  192  A    between atoms: _464  and  _467
REMARK  193  A    between atoms: _467  and  _468
REMARK  194  A    between atoms: _471  and  _473
REMARK  195  A    between atoms: _473  and  _474
REMARK  196  A    between atoms: _473  and  _476
REMARK  197  A    between atoms: _476  and  _477
REMARK  198  A    between atoms: _477  and  _478
REMARK  199  A    between atoms: _478  and  _479
REMARK  200  A    between atoms: _479  and  _480
REMARK  201  A    between atoms: _484  and  _486
REMARK  202  A    between atoms: _486  and  _487
REMARK  203  A    between atoms: _486  and  _489
REMARK  204  A    between atoms: _489  and  _490
REMARK  205  A    between atoms: _493  and  _495
REMARK  206  A    between atoms: _495  and  _496
REMARK  207  A    between atoms: _495  and  _498
REMARK  208  A    between atoms: _498  and  _499
REMARK  209  A    between atoms: _503  and  _504
REMARK  210  A    between atoms: _509  and  _511
REMARK  211  A    between atoms: _511  and  _512
REMARK  212  A    between atoms: _511  and  _514
REMARK  213  A    between atoms: _516  and  _518
REMARK  214  A    between atoms: _518  and  _519
REMARK  215  A    between atoms: _518  and  _521
REMARK  216  A    between atoms: _521  and  _522
REMARK  217  A    between atoms: _525  and  _527
REMARK  218  A    between atoms: _527  and  _528
REMARK  219  A    between atoms: _527  and  _530
REMARK  220  A    between atoms: _530  and  _531
REMARK  221  A    between atoms: _531  and  _532
REMARK  222  A    between atoms: _537  and  _539
REMARK  223  A    between atoms: _539  and  _540
REMARK  224  A    between atoms: _539  and  _542
REMARK  225  A    between atoms: _542  and  _543
REMARK  226  A    between atoms: _545  and  _547
REMARK  227  A    between atoms: _547  and  _548
REMARK  228  A    between atoms: _547  and  _550
REMARK  229  A    between atoms: _550  and  _551
REMARK  230  A    between atoms: _555  and  _556
REMARK  231  A    between atoms: _561  and  _563
REMARK  232  A    between atoms: _563  and  _564
REMARK  233  A    between atoms: _563  and  _566
REMARK  234  A    between atoms: _566  and  _567
REMARK  235  A    between atoms: _567  and  _568
REMARK                            x       y       z     vdW  Elec       q    Type
REMARK                         _______ _______ _______ _____ _____    ______ ____
ROOT
ATOM      1  O   HOH     1       4.162  -0.241  24.387  0.00  0.00    +0.000 OA
ENDROOT
TORSDOF 0
REMARK  Name = ../refined-set-2016/3lcv/3lcv_pocket.pdb
REMARK  235 active torsions:
REMARK  status: ('A' for Active; 'I' for Inactive)
REMARK    1  A    between atoms: _1  and  _3
REMARK    2  A    between atoms: _3  and  _4
REMARK    3  A    between atoms: _3  and  _6
REMARK    4  A    between atoms: _9  and  _11
REMARK    5  A    between atoms: _11  and  _12
REMARK    6  A    between atoms: _15  and  _17
REMARK    7  A    between atoms: _17  and  _18
REMARK    8  A    between atoms: _17  and  _20
REMARK    9  A    between atoms: _20  and  _21
REMARK   10  A    between atoms: _24  and  _26
REMARK   11  A    between atoms: _26  and  _27
REMARK   12  A    between atoms: _26  and  _29
REMARK   13  A    between atoms: _29  and  _30
REMARK   14  A    between atoms: _30  and  _31
REMARK   15  A    between atoms: _31  and  _32
REMARK   16  A    between atoms: _41  and  _43
REMARK   17  A    between atoms: _43  and  _44
REMARK   18  A    between atoms: _43  and  _46
REMARK   19  A    between atoms: _46  and  _47
REMARK   20  A    between atoms: _50  and  _52
REMARK   21  A    between atoms: _52  and  _53
REMARK   22  A    between atoms: _55  and  _57
REMARK   23  A    between atoms: _57  and  _58
REMARK   24  A    between atoms: _57  and  _60
REMARK   25  A    between atoms: _60  and  _61
REMARK   26  A    between atoms: _64  and  _66
REMARK   27  A    between atoms: _66  and  _67
REMARK   28  A    between atoms: _66  and  _69
REMARK   29  A    between atoms: _69  and  _70
REMARK   30  A    between atoms: _70  and  _71
REMARK   31  A    between atoms: _74  and  _76
REMARK   32  A    between atoms: _76  and  _77
REMARK   33  A    between atoms: _76  and  _79
REMARK   34  A    between atoms: _79  and  _80
REMARK   35  A    between atoms: _83  and  _85
REMARK   36  A    between atoms: _85  and  _86
REMARK   37  A    between atoms: _85  and  _88
REMARK   38  A    between atoms: _88  and  _89
REMARK   39  A    between atoms: _94  and  _95
REMARK   40  A    between atoms: _97  and  _99
REMARK   41  A    between atoms: _99  and  _100
REMARK   42  A    between atoms: _102  and  _104
REMARK   43  A    between atoms: _104  and  _105
REMARK   44  A    between atoms: _108  and  _110
REMARK   45  A    between atoms: _110  and  _111
REMARK   46  A    between atoms: _110  and  _113
REMARK   47  A    between atoms: _113  and  _114
REMARK   48  A    between atoms: _120  and  _122
REMARK   49  A    between atoms: _122  and  _123
REMARK   50  A    between atoms: _122  and  _125
REMARK   51  A    between atoms: _125  and  _126
REMARK   52  A    between atoms: _129  and  _131
REMARK   53  A    between atoms: _131  and  _132
REMARK   54  A    between atoms: _131  and  _134
REMARK   55  A    between atoms: _134  and  _135
REMARK   56  A    between atoms: _135  and  _136
REMARK   57  A    between atoms: _138  and  _140
REMARK   58  A    between atoms: _140  and  _141
REMARK   59  A    between atoms: _140  and  _143
REMARK   60  A    between atoms: _143  and  _144
REMARK   61  A    between atoms: _149  and  _151
REMARK   62  A    between atoms: _151  and  _152
REMARK   63  A    between atoms: _151  and  _154
REMARK   64  A    between atoms: _154  and  _155
REMARK   65  A    between atoms: _158  and  _160
REMARK   66  A    between atoms: _160  and  _161
REMARK   67  A    between atoms: _160  and  _163
REMARK   68  A    between atoms: _163  and  _164
REMARK   69  A    between atoms: _166  and  _168
REMARK   70  A    between atoms: _168  and  _169
REMARK   71  A    between atoms: _168  and  _171
REMARK   72  A    between atoms: _171  and  _172
REMARK   73  A    between atoms: _175  and  _177
REMARK   74  A    between atoms: _177  and  _178
REMARK   75  A    between atoms: _177  and  _180
REMARK   76  A    between atoms: _180  and  _181
REMARK   77  A    between atoms: _181  and  _182
REMARK   78  A    between atoms: _182  and  _183
REMARK   79  A    between atoms: _192  and  _194
REMARK   80  A    between atoms: _194  and  _195
REMARK   81  A    between atoms: _194  and  _197
REMARK   82  A    between atoms: _197  and  _198
REMARK   83  A    between atoms: _198  and  _199
REMARK   84  A    between atoms: _202  and  _204
REMARK   85  A    between atoms: _204  and  _205
REMARK   86  A    between atoms: _204  and  _207
REMARK   87  A    between atoms: _207  and  _208
REMARK   88  A    between atoms: _208  and  _209
REMARK   89  A    between atoms: _209  and  _210
REMARK   90  A    between atoms: _219  and  _221
REMARK   91  A    between atoms: _221  and  _222
REMARK   92  A    between atoms: _221  and  _224
REMARK   93  A    between atoms: _224  and  _225
REMARK   94  A    between atoms: _228  and  _230
REMARK   95  A    between atoms: _230  and  _231
REMARK   96  A    between atoms: _230  and  _233
REMARK   97  A    between atoms: _233  and  _234
REMARK   98  A    between atoms: _240  and  _242
REMARK   99  A    between atoms: _242  and  _243
REMARK  100  A    between atoms: _242  and  _245
REMARK  101  A    between atoms: _245  and  _246
REMARK  102  A    between atoms: _251  and  _252
REMARK  103  A    between atoms: _254  and  _256
REMARK  104  A    between atoms: _256  and  _257
REMARK  105  A    between atoms: _256  and  _259
REMARK  106  A    between atoms: _259  and  _260
REMARK  107  A    between atoms: _263  and  _265
REMARK  108  A    between atoms: _265  and  _266
REMARK  109  A    between atoms: _265  and  _268
REMARK  110  A    between atoms: _268  and  _269
REMARK  111  A    between atoms: _272  and  _274
REMARK  112  A    between atoms: _274  and  _275
REMARK  113  A    between atoms: _278  and  _280
REMARK  114  A    between atoms: _280  and  _281
REMARK  115  A    between atoms: _280  and  _283
REMARK  116  A    between atoms: _285  and  _287
REMARK  117  A    between atoms: _287  and  _288
REMARK  118  A    between atoms: _290  and  _292
REMARK  119  A    between atoms: _292  and  _293
REMARK  120  A    between atoms: _292  and  _295
REMARK  121  A    between atoms: _295  and  _296
REMARK  122  A    between atoms: _299  and  _301
REMARK  123  A    between atoms: _301  and  _302
REMARK  124  A    between atoms: _301  and  _304
REMARK  125  A    between atoms: _304  and  _305
REMARK  126  A    between atoms: _311  and  _312
REMARK  127  A    between atoms: _317  and  _319
REMARK  128  A    between atoms: _319  and  _320
REMARK  129  A    between atoms: _319  and  _322
REMARK  130  A    between atoms: _322  and  _323
REMARK  131  A    between atoms: _326  and  _328
REMARK  132  A    between atoms: _328  and  _329
REMARK  133  A    between atoms: _328  and  _331
REMARK  134  A    between atoms: _331  and  _332
REMARK  135  A    between atoms: _337  and  _338
REMARK  136  A    between atoms: _340  and  _342
REMARK  137  A    between atoms: _342  and  _343
REMARK  138  A    between atoms: _342  and  _345
REMARK  139  A    between atoms: _345  and  _346
REMARK  140  A    between atoms: _348  and  _350
REMARK  141  A    between atoms: _350  and  _351
REMARK  142  A    between atoms: _350  and  _353
REMARK  143  A    between atoms: _353  and  _354
REMARK  144  A    between atoms: _357  and  _359
REMARK  145  A    between atoms: _359  and  _360
REMARK  146  A    between atoms: _359  and  _362
REMARK  147  A    between atoms: _362  and  _363
REMARK  148  A    between atoms: _366  and  _368
REMARK  149  A    between atoms: _368  and  _369
REMARK  150  A    between atoms: _368  and  _371
REMARK  151  A    between atoms: _371  and  _372
REMARK  152  A    between atoms: _375  and  _377
REMARK  153  A    between atoms: _377  and  _378
REMARK  154  A    between atoms: _377  and  _380
REMARK  155  A    between atoms: _380  and  _381
REMARK  156  A    between atoms: _384  and  _386
REMARK  157  A    between atoms: _386  and  _387
REMARK  158  A    between atoms: _386  and  _389
REMARK  159  A    between atoms: _392  and  _394
REMARK  160  A    between atoms: _394  and  _395
REMARK  161  A    between atoms: _398  and  _400
REMARK  162  A    between atoms: _400  and  _401
REMARK  163  A    between atoms: _400  and  _403
REMARK  164  A    between atoms: _403  and  _404
REMARK  165  A    between atoms: _407  and  _409
REMARK  166  A    between atoms: _409  and  _410
REMARK  167  A    between atoms: _409  and  _412
REMARK  168  A    between atoms: _412  and  _413
REMARK  169  A    between atoms: _416  and  _418
REMARK  170  A    between atoms: _418  and  _419
REMARK  171  A    between atoms: _418  and  _421
REMARK  172  A    between atoms: _421  and  _422
REMARK  173  A    between atoms: _425  and  _427
REMARK  174  A    between atoms: _427  and  _428
REMARK  175  A    between atoms: _427  and  _430
REMARK  176  A    between atoms: _430  and  _431
REMARK  177  A    between atoms: _431  and  _432
REMARK  178  A    between atoms: _435  and  _437
REMARK  179  A    between atoms: _437  and  _438
REMARK  180  A    between atoms: _437  and  _440
REMARK  181  A    between atoms: _440  and  _441
REMARK  182  A    between atoms: _444  and  _446
REMARK  183  A    between atoms: _446  and  _447
REMARK  184  A    between atoms: _446  and  _449
REMARK  185  A    between atoms: _449  and  _450
REMARK  186  A    between atoms: _453  and  _455
REMARK  187  A    between atoms: _455  and  _456
REMARK  188  A    between atoms: _455  and  _458
REMARK  189  A    between atoms: _458  and  _459
REMARK  190  A    between atoms: _462  and  _464
REMARK  191  A    between atoms: _464  and  _465
REMARK  192  A    between atoms: _464  and  _467
REMARK  193  A    between atoms: _467  and  _468
REMARK  194  A    between atoms: _471  and  _473
REMARK  195  A    between atoms: _473  and  _474
REMARK  196  A    between atoms: _473  and  _476
REMARK  197  A    between atoms: _476  and  _477
REMARK  198  A    between atoms: _477  and  _478
REMARK  199  A    between atoms: _478  and  _479
REMARK  200  A    between atoms: _479  and  _480
REMARK  201  A    between atoms: _484  and  _486
REMARK  202  A    between atoms: _486  and  _487
REMARK  203  A    between atoms: _486  and  _489
REMARK  204  A    between atoms: _489  and  _490
REMARK  205  A    between atoms: _493  and  _495
REMARK  206  A    between atoms: _495  and  _496
REMARK  207  A    between atoms: _495  and  _498
REMARK  208  A    between atoms: _498  and  _499
REMARK  209  A    between atoms: _503  and  _504
REMARK  210  A    between atoms: _509  and  _511
REMARK  211  A    between atoms: _511  and  _512
REMARK  212  A    between atoms: _511  and  _514
REMARK  213  A    between atoms: _516  and  _518
REMARK  214  A    between atoms: _518  and  _519
REMARK  215  A    between atoms: _518  and  _521
REMARK  216  A    between atoms: _521  and  _522
REMARK  217  A    between atoms: _525  and  _527
REMARK  218  A    between atoms: _527  and  _528
REMARK  219  A    between atoms: _527  and  _530
REMARK  220  A    between atoms: _530  and  _531
REMARK  221  A    between atoms: _531  and  _532
REMARK  222  A    between atoms: _537  and  _539
REMARK  223  A    between atoms: _539  and  _540
REMARK  224  A    between atoms: _539  and  _542
REMARK  225  A    between atoms: _542  and  _543
REMARK  226  A    between atoms: _545  and  _547
REMARK  227  A    between atoms: _547  and  _548
REMARK  228  A    between atoms: _547  and  _550
REMARK  229  A    between atoms: _550  and  _551
REMARK  230  A    between atoms: _555  and  _556
REMARK  231  A    between atoms: _561  and  _563
REMARK  232  A    between atoms: _563  and  _564
REMARK  233  A    between atoms: _563  and  _566
REMARK  234  A    between atoms: _566  and  _567
REMARK  235  A    between atoms: _567  and  _568
REMARK                            x       y       z     vdW  Elec       q    Type
REMARK                         _______ _______ _______ _____ _____    ______ ____
ROOT
ATOM      1  O   HOH     1       4.158   4.030  18.764  0.00  0.00    +0.000 OA
ENDROOT
TORSDOF 0
REMARK  Name = ../refined-set-2016/3lcv/3lcv_pocket.pdb
REMARK  235 active torsions:
REMARK  status: ('A' for Active; 'I' for Inactive)
REMARK    1  A    between atoms: _1  and  _3
REMARK    2  A    between atoms: _3  and  _4
REMARK    3  A    between atoms: _3  and  _6
REMARK    4  A    between atoms: _9  and  _11
REMARK    5  A    between atoms: _11  and  _12
REMARK    6  A    between atoms: _15  and  _17
REMARK    7  A    between atoms: _17  and  _18
REMARK    8  A    between atoms: _17  and  _20
REMARK    9  A    between atoms: _20  and  _21
REMARK   10  A    between atoms: _24  and  _26
REMARK   11  A    between atoms: _26  and  _27
REMARK   12  A    between atoms: _26  and  _29
REMARK   13  A    between atoms: _29  and  _30
REMARK   14  A    between atoms: _30  and  _31
REMARK   15  A    between atoms: _31  and  _32
REMARK   16  A    between atoms: _41  and  _43
REMARK   17  A    between atoms: _43  and  _44
REMARK   18  A    between atoms: _43  and  _46
REMARK   19  A    between atoms: _46  and  _47
REMARK   20  A    between atoms: _50  and  _52
REMARK   21  A    between atoms: _52  and  _53
REMARK   22  A    between atoms: _55  and  _57
REMARK   23  A    between atoms: _57  and  _58
REMARK   24  A    between atoms: _57  and  _60
REMARK   25  A    between atoms: _60  and  _61
REMARK   26  A    between atoms: _64  and  _66
REMARK   27  A    between atoms: _66  and  _67
REMARK   28  A    between atoms: _66  and  _69
REMARK   29  A    between atoms: _69  and  _70
REMARK   30  A    between atoms: _70  and  _71
REMARK   31  A    between atoms: _74  and  _76
REMARK   32  A    between atoms: _76  and  _77
REMARK   33  A    between atoms: _76  and  _79
REMARK   34  A    between atoms: _79  and  _80
REMARK   35  A    between atoms: _83  and  _85
REMARK   36  A    between atoms: _85  and  _86
REMARK   37  A    between atoms: _85  and  _88
REMARK   38  A    between atoms: _88  and  _89
REMARK   39  A    between atoms: _94  and  _95
REMARK   40  A    between atoms: _97  and  _99
REMARK   41  A    between atoms: _99  and  _100
REMARK   42  A    between atoms: _102  and  _104
REMARK   43  A    between atoms: _104  and  _105
REMARK   44  A    between atoms: _108  and  _110
REMARK   45  A    between atoms: _110  and  _111
REMARK   46  A    between atoms: _110  and  _113
REMARK   47  A    between atoms: _113  and  _114
REMARK   48  A    between atoms: _120  and  _122
REMARK   49  A    between atoms: _122  and  _123
REMARK   50  A    between atoms: _122  and  _125
REMARK   51  A    between atoms: _125  and  _126
REMARK   52  A    between atoms: _129  and  _131
REMARK   53  A    between atoms: _131  and  _132
REMARK   54  A    between atoms: _131  and  _134
REMARK   55  A    between atoms: _134  and  _135
REMARK   56  A    between atoms: _135  and  _136
REMARK   57  A    between atoms: _138  and  _140
REMARK   58  A    between atoms: _140  and  _141
REMARK   59  A    between atoms: _140  and  _143
REMARK   60  A    between atoms: _143  and  _144
REMARK   61  A    between atoms: _149  and  _151
REMARK   62  A    between atoms: _151  and  _152
REMARK   63  A    between atoms: _151  and  _154
REMARK   64  A    between atoms: _154  and  _155
REMARK   65  A    between atoms: _158  and  _160
REMARK   66  A    between atoms: _160  and  _161
REMARK   67  A    between atoms: _160  and  _163
REMARK   68  A    between atoms: _163  and  _164
REMARK   69  A    between atoms: _166  and  _168
REMARK   70  A    between atoms: _168  and  _169
REMARK   71  A    between atoms: _168  and  _171
REMARK   72  A    between atoms: _171  and  _172
REMARK   73  A    between atoms: _175  and  _177
REMARK   74  A    between atoms: _177  and  _178
REMARK   75  A    between atoms: _177  and  _180
REMARK   76  A    between atoms: _180  and  _181
REMARK   77  A    between atoms: _181  and  _182
REMARK   78  A    between atoms: _182  and  _183
REMARK   79  A    between atoms: _192  and  _194
REMARK   80  A    between atoms: _194  and  _195
REMARK   81  A    between atoms: _194  and  _197
REMARK   82  A    between atoms: _197  and  _198
REMARK   83  A    between atoms: _198  and  _199
REMARK   84  A    between atoms: _202  and  _204
REMARK   85  A    between atoms: _204  and  _205
REMARK   86  A    between atoms: _204  and  _207
REMARK   87  A    between atoms: _207  and  _208
REMARK   88  A    between atoms: _208  and  _209
REMARK   89  A    between atoms: _209  and  _210
REMARK   90  A    between atoms: _219  and  _221
REMARK   91  A    between atoms: _221  and  _222
REMARK   92  A    between atoms: _221  and  _224
REMARK   93  A    between atoms: _224  and  _225
REMARK   94  A    between atoms: _228  and  _230
REMARK   95  A    between atoms: _230  and  _231
REMARK   96  A    between atoms: _230  and  _233
REMARK   97  A    between atoms: _233  and  _234
REMARK   98  A    between atoms: _240  and  _242
REMARK   99  A    between atoms: _242  and  _243
REMARK  100  A    between atoms: _242  and  _245
REMARK  101  A    between atoms: _245  and  _246
REMARK  102  A    between atoms: _251  and  _252
REMARK  103  A    between atoms: _254  and  _256
REMARK  104  A    between atoms: _256  and  _257
REMARK  105  A    between atoms: _256  and  _259
REMARK  106  A    between atoms: _259  and  _260
REMARK  107  A    between atoms: _263  and  _265
REMARK  108  A    between atoms: _265  and  _266
REMARK  109  A    between atoms: _265  and  _268
REMARK  110  A    between atoms: _268  and  _269
REMARK  111  A    between atoms: _272  and  _274
REMARK  112  A    between atoms: _274  and  _275
REMARK  113  A    between atoms: _278  and  _280
REMARK  114  A    between atoms: _280  and  _281
REMARK  115  A    between atoms: _280  and  _283
REMARK  116  A    between atoms: _285  and  _287
REMARK  117  A    between atoms: _287  and  _288
REMARK  118  A    between atoms: _290  and  _292
REMARK  119  A    between atoms: _292  and  _293
REMARK  120  A    between atoms: _292  and  _295
REMARK  121  A    between atoms: _295  and  _296
REMARK  122  A    between atoms: _299  and  _301
REMARK  123  A    between atoms: _301  and  _302
REMARK  124  A    between atoms: _301  and  _304
REMARK  125  A    between atoms: _304  and  _305
REMARK  126  A    between atoms: _311  and  _312
REMARK  127  A    between atoms: _317  and  _319
REMARK  128  A    between atoms: _319  and  _320
REMARK  129  A    between atoms: _319  and  _322
REMARK  130  A    between atoms: _322  and  _323
REMARK  131  A    between atoms: _326  and  _328
REMARK  132  A    between atoms: _328  and  _329
REMARK  133  A    between atoms: _328  and  _331
REMARK  134  A    between atoms: _331  and  _332
REMARK  135  A    between atoms: _337  and  _338
REMARK  136  A    between atoms: _340  and  _342
REMARK  137  A    between atoms: _342  and  _343
REMARK  138  A    between atoms: _342  and  _345
REMARK  139  A    between atoms: _345  and  _346
REMARK  140  A    between atoms: _348  and  _350
REMARK  141  A    between atoms: _350  and  _351
REMARK  142  A    between atoms: _350  and  _353
REMARK  143  A    between atoms: _353  and  _354
REMARK  144  A    between atoms: _357  and  _359
REMARK  145  A    between atoms: _359  and  _360
REMARK  146  A    between atoms: _359  and  _362
REMARK  147  A    between atoms: _362  and  _363
REMARK  148  A    between atoms: _366  and  _368
REMARK  149  A    between atoms: _368  and  _369
REMARK  150  A    between atoms: _368  and  _371
REMARK  151  A    between atoms: _371  and  _372
REMARK  152  A    between atoms: _375  and  _377
REMARK  153  A    between atoms: _377  and  _378
REMARK  154  A    between atoms: _377  and  _380
REMARK  155  A    between atoms: _380  and  _381
REMARK  156  A    between atoms: _384  and  _386
REMARK  157  A    between atoms: _386  and  _387
REMARK  158  A    between atoms: _386  and  _389
REMARK  159  A    between atoms: _392  and  _394
REMARK  160  A    between atoms: _394  and  _395
REMARK  161  A    between atoms: _398  and  _400
REMARK  162  A    between atoms: _400  and  _401
REMARK  163  A    between atoms: _400  and  _403
REMARK  164  A    between atoms: _403  and  _404
REMARK  165  A    between atoms: _407  and  _409
REMARK  166  A    between atoms: _409  and  _410
REMARK  167  A    between atoms: _409  and  _412
REMARK  168  A    between atoms: _412  and  _413
REMARK  169  A    between atoms: _416  and  _418
REMARK  170  A    between atoms: _418  and  _419
REMARK  171  A    between atoms: _418  and  _421
REMARK  172  A    between atoms: _421  and  _422
REMARK  173  A    between atoms: _425  and  _427
REMARK  174  A    between atoms: _427  and  _428
REMARK  175  A    between atoms: _427  and  _430
REMARK  176  A    between atoms: _430  and  _431
REMARK  177  A    between atoms: _431  and  _432
REMARK  178  A    between atoms: _435  and  _437
REMARK  179  A    between atoms: _437  and  _438
REMARK  180  A    between atoms: _437  and  _440
REMARK  181  A    between atoms: _440  and  _441
REMARK  182  A    between atoms: _444  and  _446
REMARK  183  A    between atoms: _446  and  _447
REMARK  184  A    between atoms: _446  and  _449
REMARK  185  A    between atoms: _449  and  _450
REMARK  186  A    between atoms: _453  and  _455
REMARK  187  A    between atoms: _455  and  _456
REMARK  188  A    between atoms: _455  and  _458
REMARK  189  A    between atoms: _458  and  _459
REMARK  190  A    between atoms: _462  and  _464
REMARK  191  A    between atoms: _464  and  _465
REMARK  192  A    between atoms: _464  and  _467
REMARK  193  A    between atoms: _467  and  _468
REMARK  194  A    between atoms: _471  and  _473
REMARK  195  A    between atoms: _473  and  _474
REMARK  196  A    between atoms: _473  and  _476
REMARK  197  A    between atoms: _476  and  _477
REMARK  198  A    between atoms: _477  and  _478
REMARK  199  A    between atoms: _478  and  _479
REMARK  200  A    between atoms: _479  and  _480
REMARK  201  A    between atoms: _484  and  _486
REMARK  202  A    between atoms: _486  and  _487
REMARK  203  A    between atoms: _486  and  _489
REMARK  204  A    between atoms: _489  and  _490
REMARK  205  A    between atoms: _493  and  _495
REMARK  206  A    between atoms: _495  and  _496
REMARK  207  A    between atoms: _495  and  _498
REMARK  208  A    between atoms: _498  and  _499
REMARK  209  A    between atoms: _503  and  _504
REMARK  210  A    between atoms: _509  and  _511
REMARK  211  A    between atoms: _511  and  _512
REMARK  212  A    between atoms: _511  and  _514
REMARK  213  A    between atoms: _516  and  _518
REMARK  214  A    between atoms: _518  and  _519
REMARK  215  A    between atoms: _518  and  _521
REMARK  216  A    between atoms: _521  and  _522
REMARK  217  A    between atoms: _525  and  _527
REMARK  218  A    between atoms: _527  and  _528
REMARK  219  A    between atoms: _527  and  _530
REMARK  220  A    between atoms: _530  and  _531
REMARK  221  A    between atoms: _531  and  _532
REMARK  222  A    between atoms: _537  and  _539
REMARK  223  A    between atoms: _539  and  _540
REMARK  224  A    between atoms: _539  and  _542
REMARK  225  A    between atoms: _542  and  _543
REMARK  226  A    between atoms: _545  and  _547
REMARK  227  A    between atoms: _547  and  _548
REMARK  228  A    between atoms: _547  and  _550
REMARK  229  A    between atoms: _550  and  _551
REMARK  230  A    between atoms: _555  and  _556
REMARK  231  A    between atoms: _561  and  _563
REMARK  232  A    between atoms: _563  and  _564
REMARK  233  A    between atoms: _563  and  _566
REMARK  234  A    between atoms: _566  and  _567
REMARK  235  A    between atoms: _567  and  _568
REMARK                            x       y       z     vdW  Elec       q    Type
REMARK                         _______ _______ _______ _____ _____    ______ ____
ROOT
ATOM      1  O   HOH     1       5.980  -7.704  29.188  0.00  0.00    +0.000 OA
ENDROOT
TORSDOF 0
REMARK  Name = ../refined-set-2016/3lcv/3lcv_pocket.pdb
REMARK  235 active torsions:
REMARK  status: ('A' for Active; 'I' for Inactive)
REMARK    1  A    between atoms: _1  and  _3
REMARK    2  A    between atoms: _3  and  _4
REMARK    3  A    between atoms: _3  and  _6
REMARK    4  A    between atoms: _9  and  _11
REMARK    5  A    between atoms: _11  and  _12
REMARK    6  A    between atoms: _15  and  _17
REMARK    7  A    between atoms: _17  and  _18
REMARK    8  A    between atoms: _17  and  _20
REMARK    9  A    between atoms: _20  and  _21
REMARK   10  A    between atoms: _24  and  _26
REMARK   11  A    between atoms: _26  and  _27
REMARK   12  A    between atoms: _26  and  _29
REMARK   13  A    between atoms: _29  and  _30
REMARK   14  A    between atoms: _30  and  _31
REMARK   15  A    between atoms: _31  and  _32
REMARK   16  A    between atoms: _41  and  _43
REMARK   17  A    between atoms: _43  and  _44
REMARK   18  A    between atoms: _43  and  _46
REMARK   19  A    between atoms: _46  and  _47
REMARK   20  A    between atoms: _50  and  _52
REMARK   21  A    between atoms: _52  and  _53
REMARK   22  A    between atoms: _55  and  _57
REMARK   23  A    between atoms: _57  and  _58
REMARK   24  A    between atoms: _57  and  _60
REMARK   25  A    between atoms: _60  and  _61
REMARK   26  A    between atoms: _64  and  _66
REMARK   27  A    between atoms: _66  and  _67
REMARK   28  A    between atoms: _66  and  _69
REMARK   29  A    between atoms: _69  and  _70
REMARK   30  A    between atoms: _70  and  _71
REMARK   31  A    between atoms: _74  and  _76
REMARK   32  A    between atoms: _76  and  _77
REMARK   33  A    between atoms: _76  and  _79
REMARK   34  A    between atoms: _79  and  _80
REMARK   35  A    between atoms: _83  and  _85
REMARK   36  A    between atoms: _85  and  _86
REMARK   37  A    between atoms: _85  and  _88
REMARK   38  A    between atoms: _88  and  _89
REMARK   39  A    between atoms: _94  and  _95
REMARK   40  A    between atoms: _97  and  _99
REMARK   41  A    between atoms: _99  and  _100
REMARK   42  A    between atoms: _102  and  _104
REMARK   43  A    between atoms: _104  and  _105
REMARK   44  A    between atoms: _108  and  _110
REMARK   45  A    between atoms: _110  and  _111
REMARK   46  A    between atoms: _110  and  _113
REMARK   47  A    between atoms: _113  and  _114
REMARK   48  A    between atoms: _120  and  _122
REMARK   49  A    between atoms: _122  and  _123
REMARK   50  A    between atoms: _122  and  _125
REMARK   51  A    between atoms: _125  and  _126
REMARK   52  A    between atoms: _129  and  _131
REMARK   53  A    between atoms: _131  and  _132
REMARK   54  A    between atoms: _131  and  _134
REMARK   55  A    between atoms: _134  and  _135
REMARK   56  A    between atoms: _135  and  _136
REMARK   57  A    between atoms: _138  and  _140
REMARK   58  A    between atoms: _140  and  _141
REMARK   59  A    between atoms: _140  and  _143
REMARK   60  A    between atoms: _143  and  _144
REMARK   61  A    between atoms: _149  and  _151
REMARK   62  A    between atoms: _151  and  _152
REMARK   63  A    between atoms: _151  and  _154
REMARK   64  A    between atoms: _154  and  _155
REMARK   65  A    between atoms: _158  and  _160
REMARK   66  A    between atoms: _160  and  _161
REMARK   67  A    between atoms: _160  and  _163
REMARK   68  A    between atoms: _163  and  _164
REMARK   69  A    between atoms: _166  and  _168
REMARK   70  A    between atoms: _168  and  _169
REMARK   71  A    between atoms: _168  and  _171
REMARK   72  A    between atoms: _171  and  _172
REMARK   73  A    between atoms: _175  and  _177
REMARK   74  A    between atoms: _177  and  _178
REMARK   75  A    between atoms: _177  and  _180
REMARK   76  A    between atoms: _180  and  _181
REMARK   77  A    between atoms: _181  and  _182
REMARK   78  A    between atoms: _182  and  _183
REMARK   79  A    between atoms: _192  and  _194
REMARK   80  A    between atoms: _194  and  _195
REMARK   81  A    between atoms: _194  and  _197
REMARK   82  A    between atoms: _197  and  _198
REMARK   83  A    between atoms: _198  and  _199
REMARK   84  A    between atoms: _202  and  _204
REMARK   85  A    between atoms: _204  and  _205
REMARK   86  A    between atoms: _204  and  _207
REMARK   87  A    between atoms: _207  and  _208
REMARK   88  A    between atoms: _208  and  _209
REMARK   89  A    between atoms: _209  and  _210
REMARK   90  A    between atoms: _219  and  _221
REMARK   91  A    between atoms: _221  and  _222
REMARK   92  A    between atoms: _221  and  _224
REMARK   93  A    between atoms: _224  and  _225
REMARK   94  A    between atoms: _228  and  _230
REMARK   95  A    between atoms: _230  and  _231
REMARK   96  A    between atoms: _230  and  _233
REMARK   97  A    between atoms: _233  and  _234
REMARK   98  A    between atoms: _240  and  _242
REMARK   99  A    between atoms: _242  and  _243
REMARK  100  A    between atoms: _242  and  _245
REMARK  101  A    between atoms: _245  and  _246
REMARK  102  A    between atoms: _251  and  _252
REMARK  103  A    between atoms: _254  and  _256
REMARK  104  A    between atoms: _256  and  _257
REMARK  105  A    between atoms: _256  and  _259
REMARK  106  A    between atoms: _259  and  _260
REMARK  107  A    between atoms: _263  and  _265
REMARK  108  A    between atoms: _265  and  _266
REMARK  109  A    between atoms: _265  and  _268
REMARK  110  A    between atoms: _268  and  _269
REMARK  111  A    between atoms: _272  and  _274
REMARK  112  A    between atoms: _274  and  _275
REMARK  113  A    between atoms: _278  and  _280
REMARK  114  A    between atoms: _280  and  _281
REMARK  115  A    between atoms: _280  and  _283
REMARK  116  A    between atoms: _285  and  _287
REMARK  117  A    between atoms: _287  and  _288
REMARK  118  A    between atoms: _290  and  _292
REMARK  119  A    between atoms: _292  and  _293
REMARK  120  A    between atoms: _292  and  _295
REMARK  121  A    between atoms: _295  and  _296
REMARK  122  A    between atoms: _299  and  _301
REMARK  123  A    between atoms: _301  and  _302
REMARK  124  A    between atoms: _301  and  _304
REMARK  125  A    between atoms: _304  and  _305
REMARK  126  A    between atoms: _311  and  _312
REMARK  127  A    between atoms: _317  and  _319
REMARK  128  A    between atoms: _319  and  _320
REMARK  129  A    between atoms: _319  and  _322
REMARK  130  A    between atoms: _322  and  _323
REMARK  131  A    between atoms: _326  and  _328
REMARK  132  A    between atoms: _328  and  _329
REMARK  133  A    between atoms: _328  and  _331
REMARK  134  A    between atoms: _331  and  _332
REMARK  135  A    between atoms: _337  and  _338
REMARK  136  A    between atoms: _340  and  _342
REMARK  137  A    between atoms: _342  and  _343
REMARK  138  A    between atoms: _342  and  _345
REMARK  139  A    between atoms: _345  and  _346
REMARK  140  A    between atoms: _348  and  _350
REMARK  141  A    between atoms: _350  and  _351
REMARK  142  A    between atoms: _350  and  _353
REMARK  143  A    between atoms: _353  and  _354
REMARK  144  A    between atoms: _357  and  _359
REMARK  145  A    between atoms: _359  and  _360
REMARK  146  A    between atoms: _359  and  _362
REMARK  147  A    between atoms: _362  and  _363
REMARK  148  A    between atoms: _366  and  _368
REMARK  149  A    between atoms: _368  and  _369
REMARK  150  A    between atoms: _368  and  _371
REMARK  151  A    between atoms: _371  and  _372
REMARK  152  A    between atoms: _375  and  _377
REMARK  153  A    between atoms: _377  and  _378
REMARK  154  A    between atoms: _377  and  _380
REMARK  155  A    between atoms: _380  and  _381
REMARK  156  A    between atoms: _384  and  _386
REMARK  157  A    between atoms: _386  and  _387
REMARK  158  A    between atoms: _386  and  _389
REMARK  159  A    between atoms: _392  and  _394
REMARK  160  A    between atoms: _394  and  _395
REMARK  161  A    between atoms: _398  and  _400
REMARK  162  A    between atoms: _400  and  _401
REMARK  163  A    between atoms: _400  and  _403
REMARK  164  A    between atoms: _403  and  _404
REMARK  165  A    between atoms: _407  and  _409
REMARK  166  A    between atoms: _409  and  _410
REMARK  167  A    between atoms: _409  and  _412
REMARK  168  A    between atoms: _412  and  _413
REMARK  169  A    between atoms: _416  and  _418
REMARK  170  A    between atoms: _418  and  _419
REMARK  171  A    between atoms: _418  and  _421
REMARK  172  A    between atoms: _421  and  _422
REMARK  173  A    between atoms: _425  and  _427
REMARK  174  A    between atoms: _427  and  _428
REMARK  175  A    between atoms: _427  and  _430
REMARK  176  A    between atoms: _430  and  _431
REMARK  177  A    between atoms: _431  and  _432
REMARK  178  A    between atoms: _435  and  _437
REMARK  179  A    between atoms: _437  and  _438
REMARK  180  A    between atoms: _437  and  _440
REMARK  181  A    between atoms: _440  and  _441
REMARK  182  A    between atoms: _444  and  _446
REMARK  183  A    between atoms: _446  and  _447
REMARK  184  A    between atoms: _446  and  _449
REMARK  185  A    between atoms: _449  and  _450
REMARK  186  A    between atoms: _453  and  _455
REMARK  187  A    between atoms: _455  and  _456
REMARK  188  A    between atoms: _455  and  _458
REMARK  189  A    between atoms: _458  and  _459
REMARK  190  A    between atoms: _462  and  _464
REMARK  191  A    between atoms: _464  and  _465
REMARK  192  A    between atoms: _464  and  _467
REMARK  193  A    between atoms: _467  and  _468
REMARK  194  A    between atoms: _471  and  _473
REMARK  195  A    between atoms: _473  and  _474
REMARK  196  A    between atoms: _473  and  _476
REMARK  197  A    between atoms: _476  and  _477
REMARK  198  A    between atoms: _477  and  _478
REMARK  199  A    between atoms: _478  and  _479
REMARK  200  A    between atoms: _479  and  _480
REMARK  201  A    between atoms: _484  and  _486
REMARK  202  A    between atoms: _486  and  _487
REMARK  203  A    between atoms: _486  and  _489
REMARK  204  A    between atoms: _489  and  _490
REMARK  205  A    between atoms: _493  and  _495
REMARK  206  A    between atoms: _495  and  _496
REMARK  207  A    between atoms: _495  and  _498
REMARK  208  A    between atoms: _498  and  _499
REMARK  209  A    between atoms: _503  and  _504
REMARK  210  A    between atoms: _509  and  _511
REMARK  211  A    between atoms: _511  and  _512
REMARK  212  A    between atoms: _511  and  _514
REMARK  213  A    between atoms: _516  and  _518
REMARK  214  A    between atoms: _518  and  _519
REMARK  215  A    between atoms: _518  and  _521
REMARK  216  A    between atoms: _521  and  _522
REMARK  217  A    between atoms: _525  and  _527
REMARK  218  A    between atoms: _527  and  _528
REMARK  219  A    between atoms: _527  and  _530
REMARK  220  A    between atoms: _530  and  _531
REMARK  221  A    between atoms: _531  and  _532
REMARK  222  A    between atoms: _537  and  _539
REMARK  223  A    between atoms: _539  and  _540
REMARK  224  A    between atoms: _539  and  _542
REMARK  225  A    between atoms: _542  and  _543
REMARK  226  A    between atoms: _545  and  _547
REMARK  227  A    between atoms: _547  and  _548
REMARK  228  A    between atoms: _547  and  _550
REMARK  229  A    between atoms: _550  and  _551
REMARK  230  A    between atoms: _555  and  _556
REMARK  231  A    between atoms: _561  and  _563
REMARK  232  A    between atoms: _563  and  _564
REMARK  233  A    between atoms: _563  and  _566
REMARK  234  A    between atoms: _566  and  _567
REMARK  235  A    between atoms: _567  and  _568
REMARK                            x       y       z     vdW  Elec       q    Type
REMARK                         _______ _______ _______ _____ _____    ______ ____
ROOT
ATOM      1  O   HOH     1      12.791   5.796   7.462  0.00  0.00    +0.000 OA
ENDROOT
TORSDOF 0
REMARK  Name = ../refined-set-2016/3lcv/3lcv_pocket.pdb
REMARK  235 active torsions:
REMARK  status: ('A' for Active; 'I' for Inactive)
REMARK    1  A    between atoms: _1  and  _3
REMARK    2  A    between atoms: _3  and  _4
REMARK    3  A    between atoms: _3  and  _6
REMARK    4  A    between atoms: _9  and  _11
REMARK    5  A    between atoms: _11  and  _12
REMARK    6  A    between atoms: _15  and  _17
REMARK    7  A    between atoms: _17  and  _18
REMARK    8  A    between atoms: _17  and  _20
REMARK    9  A    between atoms: _20  and  _21
REMARK   10  A    between atoms: _24  and  _26
REMARK   11  A    between atoms: _26  and  _27
REMARK   12  A    between atoms: _26  and  _29
REMARK   13  A    between atoms: _29  and  _30
REMARK   14  A    between atoms: _30  and  _31
REMARK   15  A    between atoms: _31  and  _32
REMARK   16  A    between atoms: _41  and  _43
REMARK   17  A    between atoms: _43  and  _44
REMARK   18  A    between atoms: _43  and  _46
REMARK   19  A    between atoms: _46  and  _47
REMARK   20  A    between atoms: _50  and  _52
REMARK   21  A    between atoms: _52  and  _53
REMARK   22  A    between atoms: _55  and  _57
REMARK   23  A    between atoms: _57  and  _58
REMARK   24  A    between atoms: _57  and  _60
REMARK   25  A    between atoms: _60  and  _61
REMARK   26  A    between atoms: _64  and  _66
REMARK   27  A    between atoms: _66  and  _67
REMARK   28  A    between atoms: _66  and  _69
REMARK   29  A    between atoms: _69  and  _70
REMARK   30  A    between atoms: _70  and  _71
REMARK   31  A    between atoms: _74  and  _76
REMARK   32  A    between atoms: _76  and  _77
REMARK   33  A    between atoms: _76  and  _79
REMARK   34  A    between atoms: _79  and  _80
REMARK   35  A    between atoms: _83  and  _85
REMARK   36  A    between atoms: _85  and  _86
REMARK   37  A    between atoms: _85  and  _88
REMARK   38  A    between atoms: _88  and  _89
REMARK   39  A    between atoms: _94  and  _95
REMARK   40  A    between atoms: _97  and  _99
REMARK   41  A    between atoms: _99  and  _100
REMARK   42  A    between atoms: _102  and  _104
REMARK   43  A    between atoms: _104  and  _105
REMARK   44  A    between atoms: _108  and  _110
REMARK   45  A    between atoms: _110  and  _111
REMARK   46  A    between atoms: _110  and  _113
REMARK   47  A    between atoms: _113  and  _114
REMARK   48  A    between atoms: _120  and  _122
REMARK   49  A    between atoms: _122  and  _123
REMARK   50  A    between atoms: _122  and  _125
REMARK   51  A    between atoms: _125  and  _126
REMARK   52  A    between atoms: _129  and  _131
REMARK   53  A    between atoms: _131  and  _132
REMARK   54  A    between atoms: _131  and  _134
REMARK   55  A    between atoms: _134  and  _135
REMARK   56  A    between atoms: _135  and  _136
REMARK   57  A    between atoms: _138  and  _140
REMARK   58  A    between atoms: _140  and  _141
REMARK   59  A    between atoms: _140  and  _143
REMARK   60  A    between atoms: _143  and  _144
REMARK   61  A    between atoms: _149  and  _151
REMARK   62  A    between atoms: _151  and  _152
REMARK   63  A    between atoms: _151  and  _154
REMARK   64  A    between atoms: _154  and  _155
REMARK   65  A    between atoms: _158  and  _160
REMARK   66  A    between atoms: _160  and  _161
REMARK   67  A    between atoms: _160  and  _163
REMARK   68  A    between atoms: _163  and  _164
REMARK   69  A    between atoms: _166  and  _168
REMARK   70  A    between atoms: _168  and  _169
REMARK   71  A    between atoms: _168  and  _171
REMARK   72  A    between atoms: _171  and  _172
REMARK   73  A    between atoms: _175  and  _177
REMARK   74  A    between atoms: _177  and  _178
REMARK   75  A    between atoms: _177  and  _180
REMARK   76  A    between atoms: _180  and  _181
REMARK   77  A    between atoms: _181  and  _182
REMARK   78  A    between atoms: _182  and  _183
REMARK   79  A    between atoms: _192  and  _194
REMARK   80  A    between atoms: _194  and  _195
REMARK   81  A    between atoms: _194  and  _197
REMARK   82  A    between atoms: _197  and  _198
REMARK   83  A    between atoms: _198  and  _199
REMARK   84  A    between atoms: _202  and  _204
REMARK   85  A    between atoms: _204  and  _205
REMARK   86  A    between atoms: _204  and  _207
REMARK   87  A    between atoms: _207  and  _208
REMARK   88  A    between atoms: _208  and  _209
REMARK   89  A    between atoms: _209  and  _210
REMARK   90  A    between atoms: _219  and  _221
REMARK   91  A    between atoms: _221  and  _222
REMARK   92  A    between atoms: _221  and  _224
REMARK   93  A    between atoms: _224  and  _225
REMARK   94  A    between atoms: _228  and  _230
REMARK   95  A    between atoms: _230  and  _231
REMARK   96  A    between atoms: _230  and  _233
REMARK   97  A    between atoms: _233  and  _234
REMARK   98  A    between atoms: _240  and  _242
REMARK   99  A    between atoms: _242  and  _243
REMARK  100  A    between atoms: _242  and  _245
REMARK  101  A    between atoms: _245  and  _246
REMARK  102  A    between atoms: _251  and  _252
REMARK  103  A    between atoms: _254  and  _256
REMARK  104  A    between atoms: _256  and  _257
REMARK  105  A    between atoms: _256  and  _259
REMARK  106  A    between atoms: _259  and  _260
REMARK  107  A    between atoms: _263  and  _265
REMARK  108  A    between atoms: _265  and  _266
REMARK  109  A    between atoms: _265  and  _268
REMARK  110  A    between atoms: _268  and  _269
REMARK  111  A    between atoms: _272  and  _274
REMARK  112  A    between atoms: _274  and  _275
REMARK  113  A    between atoms: _278  and  _280
REMARK  114  A    between atoms: _280  and  _281
REMARK  115  A    between atoms: _280  and  _283
REMARK  116  A    between atoms: _285  and  _287
REMARK  117  A    between atoms: _287  and  _288
REMARK  118  A    between atoms: _290  and  _292
REMARK  119  A    between atoms: _292  and  _293
REMARK  120  A    between atoms: _292  and  _295
REMARK  121  A    between atoms: _295  and  _296
REMARK  122  A    between atoms: _299  and  _301
REMARK  123  A    between atoms: _301  and  _302
REMARK  124  A    between atoms: _301  and  _304
REMARK  125  A    between atoms: _304  and  _305
REMARK  126  A    between atoms: _311  and  _312
REMARK  127  A    between atoms: _317  and  _319
REMARK  128  A    between atoms: _319  and  _320
REMARK  129  A    between atoms: _319  and  _322
REMARK  130  A    between atoms: _322  and  _323
REMARK  131  A    between atoms: _326  and  _328
REMARK  132  A    between atoms: _328  and  _329
REMARK  133  A    between atoms: _328  and  _331
REMARK  134  A    between atoms: _331  and  _332
REMARK  135  A    between atoms: _337  and  _338
REMARK  136  A    between atoms: _340  and  _342
REMARK  137  A    between atoms: _342  and  _343
REMARK  138  A    between atoms: _342  and  _345
REMARK  139  A    between atoms: _345  and  _346
REMARK  140  A    between atoms: _348  and  _350
REMARK  141  A    between atoms: _350  and  _351
REMARK  142  A    between atoms: _350  and  _353
REMARK  143  A    between atoms: _353  and  _354
REMARK  144  A    between atoms: _357  and  _359
REMARK  145  A    between atoms: _359  and  _360
REMARK  146  A    between atoms: _359  and  _362
REMARK  147  A    between atoms: _362  and  _363
REMARK  148  A    between atoms: _366  and  _368
REMARK  149  A    between atoms: _368  and  _369
REMARK  150  A    between atoms: _368  and  _371
REMARK  151  A    between atoms: _371  and  _372
REMARK  152  A    between atoms: _375  and  _377
REMARK  153  A    between atoms: _377  and  _378
REMARK  154  A    between atoms: _377  and  _380
REMARK  155  A    between atoms: _380  and  _381
REMARK  156  A    between atoms: _384  and  _386
REMARK  157  A    between atoms: _386  and  _387
REMARK  158  A    between atoms: _386  and  _389
REMARK  159  A    between atoms: _392  and  _394
REMARK  160  A    between atoms: _394  and  _395
REMARK  161  A    between atoms: _398  and  _400
REMARK  162  A    between atoms: _400  and  _401
REMARK  163  A    between atoms: _400  and  _403
REMARK  164  A    between atoms: _403  and  _404
REMARK  165  A    between atoms: _407  and  _409
REMARK  166  A    between atoms: _409  and  _410
REMARK  167  A    between atoms: _409  and  _412
REMARK  168  A    between atoms: _412  and  _413
REMARK  169  A    between atoms: _416  and  _418
REMARK  170  A    between atoms: _418  and  _419
REMARK  171  A    between atoms: _418  and  _421
REMARK  172  A    between atoms: _421  and  _422
REMARK  173  A    between atoms: _425  and  _427
REMARK  174  A    between atoms: _427  and  _428
REMARK  175  A    between atoms: _427  and  _430
REMARK  176  A    between atoms: _430  and  _431
REMARK  177  A    between atoms: _431  and  _432
REMARK  178  A    between atoms: _435  and  _437
REMARK  179  A    between atoms: _437  and  _438
REMARK  180  A    between atoms: _437  and  _440
REMARK  181  A    between atoms: _440  and  _441
REMARK  182  A    between atoms: _444  and  _446
REMARK  183  A    between atoms: _446  and  _447
REMARK  184  A    between atoms: _446  and  _449
REMARK  185  A    between atoms: _449  and  _450
REMARK  186  A    between atoms: _453  and  _455
REMARK  187  A    between atoms: _455  and  _456
REMARK  188  A    between atoms: _455  and  _458
REMARK  189  A    between atoms: _458  and  _459
REMARK  190  A    between atoms: _462  and  _464
REMARK  191  A    between atoms: _464  and  _465
REMARK  192  A    between atoms: _464  and  _467
REMARK  193  A    between atoms: _467  and  _468
REMARK  194  A    between atoms: _471  and  _473
REMARK  195  A    between atoms: _473  and  _474
REMARK  196  A    between atoms: _473  and  _476
REMARK  197  A    between atoms: _476  and  _477
REMARK  198  A    between atoms: _477  and  _478
REMARK  199  A    between atoms: _478  and  _479
REMARK  200  A    between atoms: _479  and  _480
REMARK  201  A    between atoms: _484  and  _486
REMARK  202  A    between atoms: _486  and  _487
REMARK  203  A    between atoms: _486  and  _489
REMARK  204  A    between atoms: _489  and  _490
REMARK  205  A    between atoms: _493  and  _495
REMARK  206  A    between atoms: _495  and  _496
REMARK  207  A    between atoms: _495  and  _498
REMARK  208  A    between atoms: _498  and  _499
REMARK  209  A    between atoms: _503  and  _504
REMARK  210  A    between atoms: _509  and  _511
REMARK  211  A    between atoms: _511  and  _512
REMARK  212  A    between atoms: _511  and  _514
REMARK  213  A    between atoms: _516  and  _518
REMARK  214  A    between atoms: _518  and  _519
REMARK  215  A    between atoms: _518  and  _521
REMARK  216  A    between atoms: _521  and  _522
REMARK  217  A    between atoms: _525  and  _527
REMARK  218  A    between atoms: _527  and  _528
REMARK  219  A    between atoms: _527  and  _530
REMARK  220  A    between atoms: _530  and  _531
REMARK  221  A    between atoms: _531  and  _532
REMARK  222  A    between atoms: _537  and  _539
REMARK  223  A    between atoms: _539  and  _540
REMARK  224  A    between atoms: _539  and  _542
REMARK  225  A    between atoms: _542  and  _543
REMARK  226  A    between atoms: _545  and  _547
REMARK  227  A    between atoms: _547  and  _548
REMARK  228  A    between atoms: _547  and  _550
REMARK  229  A    between atoms: _550  and  _551
REMARK  230  A    between atoms: _555  and  _556
REMARK  231  A    between atoms: _561  and  _563
REMARK  232  A    between atoms: _563  and  _564
REMARK  233  A    between atoms: _563  and  _566
REMARK  234  A    between atoms: _566  and  _567
REMARK  235  A    between atoms: _567  and  _568
REMARK                            x       y       z     vdW  Elec       q    Type
REMARK                         _______ _______ _______ _____ _____    ______ ____
ROOT
ATOM      1  O   HOH     1       4.923  -4.933  28.462  0.00  0.00    +0.000 OA
ENDROOT
TORSDOF 0
REMARK  Name = ../refined-set-2016/3lcv/3lcv_pocket.pdb
REMARK  235 active torsions:
REMARK  status: ('A' for Active; 'I' for Inactive)
REMARK    1  A    between atoms: _1  and  _3
REMARK    2  A    between atoms: _3  and  _4
REMARK    3  A    between atoms: _3  and  _6
REMARK    4  A    between atoms: _9  and  _11
REMARK    5  A    between atoms: _11  and  _12
REMARK    6  A    between atoms: _15  and  _17
REMARK    7  A    between atoms: _17  and  _18
REMARK    8  A    between atoms: _17  and  _20
REMARK    9  A    between atoms: _20  and  _21
REMARK   10  A    between atoms: _24  and  _26
REMARK   11  A    between atoms: _26  and  _27
REMARK   12  A    between atoms: _26  and  _29
REMARK   13  A    between atoms: _29  and  _30
REMARK   14  A    between atoms: _30  and  _31
REMARK   15  A    between atoms: _31  and  _32
REMARK   16  A    between atoms: _41  and  _43
REMARK   17  A    between atoms: _43  and  _44
REMARK   18  A    between atoms: _43  and  _46
REMARK   19  A    between atoms: _46  and  _47
REMARK   20  A    between atoms: _50  and  _52
REMARK   21  A    between atoms: _52  and  _53
REMARK   22  A    between atoms: _55  and  _57
REMARK   23  A    between atoms: _57  and  _58
REMARK   24  A    between atoms: _57  and  _60
REMARK   25  A    between atoms: _60  and  _61
REMARK   26  A    between atoms: _64  and  _66
REMARK   27  A    between atoms: _66  and  _67
REMARK   28  A    between atoms: _66  and  _69
REMARK   29  A    between atoms: _69  and  _70
REMARK   30  A    between atoms: _70  and  _71
REMARK   31  A    between atoms: _74  and  _76
REMARK   32  A    between atoms: _76  and  _77
REMARK   33  A    between atoms: _76  and  _79
REMARK   34  A    between atoms: _79  and  _80
REMARK   35  A    between atoms: _83  and  _85
REMARK   36  A    between atoms: _85  and  _86
REMARK   37  A    between atoms: _85  and  _88
REMARK   38  A    between atoms: _88  and  _89
REMARK   39  A    between atoms: _94  and  _95
REMARK   40  A    between atoms: _97  and  _99
REMARK   41  A    between atoms: _99  and  _100
REMARK   42  A    between atoms: _102  and  _104
REMARK   43  A    between atoms: _104  and  _105
REMARK   44  A    between atoms: _108  and  _110
REMARK   45  A    between atoms: _110  and  _111
REMARK   46  A    between atoms: _110  and  _113
REMARK   47  A    between atoms: _113  and  _114
REMARK   48  A    between atoms: _120  and  _122
REMARK   49  A    between atoms: _122  and  _123
REMARK   50  A    between atoms: _122  and  _125
REMARK   51  A    between atoms: _125  and  _126
REMARK   52  A    between atoms: _129  and  _131
REMARK   53  A    between atoms: _131  and  _132
REMARK   54  A    between atoms: _131  and  _134
REMARK   55  A    between atoms: _134  and  _135
REMARK   56  A    between atoms: _135  and  _136
REMARK   57  A    between atoms: _138  and  _140
REMARK   58  A    between atoms: _140  and  _141
REMARK   59  A    between atoms: _140  and  _143
REMARK   60  A    between atoms: _143  and  _144
REMARK   61  A    between atoms: _149  and  _151
REMARK   62  A    between atoms: _151  and  _152
REMARK   63  A    between atoms: _151  and  _154
REMARK   64  A    between atoms: _154  and  _155
REMARK   65  A    between atoms: _158  and  _160
REMARK   66  A    between atoms: _160  and  _161
REMARK   67  A    between atoms: _160  and  _163
REMARK   68  A    between atoms: _163  and  _164
REMARK   69  A    between atoms: _166  and  _168
REMARK   70  A    between atoms: _168  and  _169
REMARK   71  A    between atoms: _168  and  _171
REMARK   72  A    between atoms: _171  and  _172
REMARK   73  A    between atoms: _175  and  _177
REMARK   74  A    between atoms: _177  and  _178
REMARK   75  A    between atoms: _177  and  _180
REMARK   76  A    between atoms: _180  and  _181
REMARK   77  A    between atoms: _181  and  _182
REMARK   78  A    between atoms: _182  and  _183
REMARK   79  A    between atoms: _192  and  _194
REMARK   80  A    between atoms: _194  and  _195
REMARK   81  A    between atoms: _194  and  _197
REMARK   82  A    between atoms: _197  and  _198
REMARK   83  A    between atoms: _198  and  _199
REMARK   84  A    between atoms: _202  and  _204
REMARK   85  A    between atoms: _204  and  _205
REMARK   86  A    between atoms: _204  and  _207
REMARK   87  A    between atoms: _207  and  _208
REMARK   88  A    between atoms: _208  and  _209
REMARK   89  A    between atoms: _209  and  _210
REMARK   90  A    between atoms: _219  and  _221
REMARK   91  A    between atoms: _221  and  _222
REMARK   92  A    between atoms: _221  and  _224
REMARK   93  A    between atoms: _224  and  _225
REMARK   94  A    between atoms: _228  and  _230
REMARK   95  A    between atoms: _230  and  _231
REMARK   96  A    between atoms: _230  and  _233
REMARK   97  A    between atoms: _233  and  _234
REMARK   98  A    between atoms: _240  and  _242
REMARK   99  A    between atoms: _242  and  _243
REMARK  100  A    between atoms: _242  and  _245
REMARK  101  A    between atoms: _245  and  _246
REMARK  102  A    between atoms: _251  and  _252
REMARK  103  A    between atoms: _254  and  _256
REMARK  104  A    between atoms: _256  and  _257
REMARK  105  A    between atoms: _256  and  _259
REMARK  106  A    between atoms: _259  and  _260
REMARK  107  A    between atoms: _263  and  _265
REMARK  108  A    between atoms: _265  and  _266
REMARK  109  A    between atoms: _265  and  _268
REMARK  110  A    between atoms: _268  and  _269
REMARK  111  A    between atoms: _272  and  _274
REMARK  112  A    between atoms: _274  and  _275
REMARK  113  A    between atoms: _278  and  _280
REMARK  114  A    between atoms: _280  and  _281
REMARK  115  A    between atoms: _280  and  _283
REMARK  116  A    between atoms: _285  and  _287
REMARK  117  A    between atoms: _287  and  _288
REMARK  118  A    between atoms: _290  and  _292
REMARK  119  A    between atoms: _292  and  _293
REMARK  120  A    between atoms: _292  and  _295
REMARK  121  A    between atoms: _295  and  _296
REMARK  122  A    between atoms: _299  and  _301
REMARK  123  A    between atoms: _301  and  _302
REMARK  124  A    between atoms: _301  and  _304
REMARK  125  A    between atoms: _304  and  _305
REMARK  126  A    between atoms: _311  and  _312
REMARK  127  A    between atoms: _317  and  _319
REMARK  128  A    between atoms: _319  and  _320
REMARK  129  A    between atoms: _319  and  _322
REMARK  130  A    between atoms: _322  and  _323
REMARK  131  A    between atoms: _326  and  _328
REMARK  132  A    between atoms: _328  and  _329
REMARK  133  A    between atoms: _328  and  _331
REMARK  134  A    between atoms: _331  and  _332
REMARK  135  A    between atoms: _337  and  _338
REMARK  136  A    between atoms: _340  and  _342
REMARK  137  A    between atoms: _342  and  _343
REMARK  138  A    between atoms: _342  and  _345
REMARK  139  A    between atoms: _345  and  _346
REMARK  140  A    between atoms: _348  and  _350
REMARK  141  A    between atoms: _350  and  _351
REMARK  142  A    between atoms: _350  and  _353
REMARK  143  A    between atoms: _353  and  _354
REMARK  144  A    between atoms: _357  and  _359
REMARK  145  A    between atoms: _359  and  _360
REMARK  146  A    between atoms: _359  and  _362
REMARK  147  A    between atoms: _362  and  _363
REMARK  148  A    between atoms: _366  and  _368
REMARK  149  A    between atoms: _368  and  _369
REMARK  150  A    between atoms: _368  and  _371
REMARK  151  A    between atoms: _371  and  _372
REMARK  152  A    between atoms: _375  and  _377
REMARK  153  A    between atoms: _377  and  _378
REMARK  154  A    between atoms: _377  and  _380
REMARK  155  A    between atoms: _380  and  _381
REMARK  156  A    between atoms: _384  and  _386
REMARK  157  A    between atoms: _386  and  _387
REMARK  158  A    between atoms: _386  and  _389
REMARK  159  A    between atoms: _392  and  _394
REMARK  160  A    between atoms: _394  and  _395
REMARK  161  A    between atoms: _398  and  _400
REMARK  162  A    between atoms: _400  and  _401
REMARK  163  A    between atoms: _400  and  _403
REMARK  164  A    between atoms: _403  and  _404
REMARK  165  A    between atoms: _407  and  _409
REMARK  166  A    between atoms: _409  and  _410
REMARK  167  A    between atoms: _409  and  _412
REMARK  168  A    between atoms: _412  and  _413
REMARK  169  A    between atoms: _416  and  _418
REMARK  170  A    between atoms: _418  and  _419
REMARK  171  A    between atoms: _418  and  _421
REMARK  172  A    between atoms: _421  and  _422
REMARK  173  A    between atoms: _425  and  _427
REMARK  174  A    between atoms: _427  and  _428
REMARK  175  A    between atoms: _427  and  _430
REMARK  176  A    between atoms: _430  and  _431
REMARK  177  A    between atoms: _431  and  _432
REMARK  178  A    between atoms: _435  and  _437
REMARK  179  A    between atoms: _437  and  _438
REMARK  180  A    between atoms: _437  and  _440
REMARK  181  A    between atoms: _440  and  _441
REMARK  182  A    between atoms: _444  and  _446
REMARK  183  A    between atoms: _446  and  _447
REMARK  184  A    between atoms: _446  and  _449
REMARK  185  A    between atoms: _449  and  _450
REMARK  186  A    between atoms: _453  and  _455
REMARK  187  A    between atoms: _455  and  _456
REMARK  188  A    between atoms: _455  and  _458
REMARK  189  A    between atoms: _458  and  _459
REMARK  190  A    between atoms: _462  and  _464
REMARK  191  A    between atoms: _464  and  _465
REMARK  192  A    between atoms: _464  and  _467
REMARK  193  A    between atoms: _467  and  _468
REMARK  194  A    between atoms: _471  and  _473
REMARK  195  A    between atoms: _473  and  _474
REMARK  196  A    between atoms: _473  and  _476
REMARK  197  A    between atoms: _476  and  _477
REMARK  198  A    between atoms: _477  and  _478
REMARK  199  A    between atoms: _478  and  _479
REMARK  200  A    between atoms: _479  and  _480
REMARK  201  A    between atoms: _484  and  _486
REMARK  202  A    between atoms: _486  and  _487
REMARK  203  A    between atoms: _486  and  _489
REMARK  204  A    between atoms: _489  and  _490
REMARK  205  A    between atoms: _493  and  _495
REMARK  206  A    between atoms: _495  and  _496
REMARK  207  A    between atoms: _495  and  _498
REMARK  208  A    between atoms: _498  and  _499
REMARK  209  A    between atoms: _503  and  _504
REMARK  210  A    between atoms: _509  and  _511
REMARK  211  A    between atoms: _511  and  _512
REMARK  212  A    between atoms: _511  and  _514
REMARK  213  A    between atoms: _516  and  _518
REMARK  214  A    between atoms: _518  and  _519
REMARK  215  A    between atoms: _518  and  _521
REMARK  216  A    between atoms: _521  and  _522
REMARK  217  A    between atoms: _525  and  _527
REMARK  218  A    between atoms: _527  and  _528
REMARK  219  A    between atoms: _527  and  _530
REMARK  220  A    between atoms: _530  and  _531
REMARK  221  A    between atoms: _531  and  _532
REMARK  222  A    between atoms: _537  and  _539
REMARK  223  A    between atoms: _539  and  _540
REMARK  224  A    between atoms: _539  and  _542
REMARK  225  A    between atoms: _542  and  _543
REMARK  226  A    between atoms: _545  and  _547
REMARK  227  A    between atoms: _547  and  _548
REMARK  228  A    between atoms: _547  and  _550
REMARK  229  A    between atoms: _550  and  _551
REMARK  230  A    between atoms: _555  and  _556
REMARK  231  A    between atoms: _561  and  _563
REMARK  232  A    between atoms: _563  and  _564
REMARK  233  A    between atoms: _563  and  _566
REMARK  234  A    between atoms: _566  and  _567
REMARK  235  A    between atoms: _567  and  _568
REMARK                            x       y       z     vdW  Elec       q    Type
REMARK                         _______ _______ _______ _____ _____    ______ ____
ROOT
ATOM      1  O   HOH     1      13.832  -0.669  20.551  0.00  0.00    +0.000 OA
ENDROOT
TORSDOF 0
REMARK  Name = ../refined-set-2016/3lcv/3lcv_pocket.pdb
REMARK  235 active torsions:
REMARK  status: ('A' for Active; 'I' for Inactive)
REMARK    1  A    between atoms: _1  and  _3
REMARK    2  A    between atoms: _3  and  _4
REMARK    3  A    between atoms: _3  and  _6
REMARK    4  A    between atoms: _9  and  _11
REMARK    5  A    between atoms: _11  and  _12
REMARK    6  A    between atoms: _15  and  _17
REMARK    7  A    between atoms: _17  and  _18
REMARK    8  A    between atoms: _17  and  _20
REMARK    9  A    between atoms: _20  and  _21
REMARK   10  A    between atoms: _24  and  _26
REMARK   11  A    between atoms: _26  and  _27
REMARK   12  A    between atoms: _26  and  _29
REMARK   13  A    between atoms: _29  and  _30
REMARK   14  A    between atoms: _30  and  _31
REMARK   15  A    between atoms: _31  and  _32
REMARK   16  A    between atoms: _41  and  _43
REMARK   17  A    between atoms: _43  and  _44
REMARK   18  A    between atoms: _43  and  _46
REMARK   19  A    between atoms: _46  and  _47
REMARK   20  A    between atoms: _50  and  _52
REMARK   21  A    between atoms: _52  and  _53
REMARK   22  A    between atoms: _55  and  _57
REMARK   23  A    between atoms: _57  and  _58
REMARK   24  A    between atoms: _57  and  _60
REMARK   25  A    between atoms: _60  and  _61
REMARK   26  A    between atoms: _64  and  _66
REMARK   27  A    between atoms: _66  and  _67
REMARK   28  A    between atoms: _66  and  _69
REMARK   29  A    between atoms: _69  and  _70
REMARK   30  A    between atoms: _70  and  _71
REMARK   31  A    between atoms: _74  and  _76
REMARK   32  A    between atoms: _76  and  _77
REMARK   33  A    between atoms: _76  and  _79
REMARK   34  A    between atoms: _79  and  _80
REMARK   35  A    between atoms: _83  and  _85
REMARK   36  A    between atoms: _85  and  _86
REMARK   37  A    between atoms: _85  and  _88
REMARK   38  A    between atoms: _88  and  _89
REMARK   39  A    between atoms: _94  and  _95
REMARK   40  A    between atoms: _97  and  _99
REMARK   41  A    between atoms: _99  and  _100
REMARK   42  A    between atoms: _102  and  _104
REMARK   43  A    between atoms: _104  and  _105
REMARK   44  A    between atoms: _108  and  _110
REMARK   45  A    between atoms: _110  and  _111
REMARK   46  A    between atoms: _110  and  _113
REMARK   47  A    between atoms: _113  and  _114
REMARK   48  A    between atoms: _120  and  _122
REMARK   49  A    between atoms: _122  and  _123
REMARK   50  A    between atoms: _122  and  _125
REMARK   51  A    between atoms: _125  and  _126
REMARK   52  A    between atoms: _129  and  _131
REMARK   53  A    between atoms: _131  and  _132
REMARK   54  A    between atoms: _131  and  _134
REMARK   55  A    between atoms: _134  and  _135
REMARK   56  A    between atoms: _135  and  _136
REMARK   57  A    between atoms: _138  and  _140
REMARK   58  A    between atoms: _140  and  _141
REMARK   59  A    between atoms: _140  and  _143
REMARK   60  A    between atoms: _143  and  _144
REMARK   61  A    between atoms: _149  and  _151
REMARK   62  A    between atoms: _151  and  _152
REMARK   63  A    between atoms: _151  and  _154
REMARK   64  A    between atoms: _154  and  _155
REMARK   65  A    between atoms: _158  and  _160
REMARK   66  A    between atoms: _160  and  _161
REMARK   67  A    between atoms: _160  and  _163
REMARK   68  A    between atoms: _163  and  _164
REMARK   69  A    between atoms: _166  and  _168
REMARK   70  A    between atoms: _168  and  _169
REMARK   71  A    between atoms: _168  and  _171
REMARK   72  A    between atoms: _171  and  _172
REMARK   73  A    between atoms: _175  and  _177
REMARK   74  A    between atoms: _177  and  _178
REMARK   75  A    between atoms: _177  and  _180
REMARK   76  A    between atoms: _180  and  _181
REMARK   77  A    between atoms: _181  and  _182
REMARK   78  A    between atoms: _182  and  _183
REMARK   79  A    between atoms: _192  and  _194
REMARK   80  A    between atoms: _194  and  _195
REMARK   81  A    between atoms: _194  and  _197
REMARK   82  A    between atoms: _197  and  _198
REMARK   83  A    between atoms: _198  and  _199
REMARK   84  A    between atoms: _202  and  _204
REMARK   85  A    between atoms: _204  and  _205
REMARK   86  A    between atoms: _204  and  _207
REMARK   87  A    between atoms: _207  and  _208
REMARK   88  A    between atoms: _208  and  _209
REMARK   89  A    between atoms: _209  and  _210
REMARK   90  A    between atoms: _219  and  _221
REMARK   91  A    between atoms: _221  and  _222
REMARK   92  A    between atoms: _221  and  _224
REMARK   93  A    between atoms: _224  and  _225
REMARK   94  A    between atoms: _228  and  _230
REMARK   95  A    between atoms: _230  and  _231
REMARK   96  A    between atoms: _230  and  _233
REMARK   97  A    between atoms: _233  and  _234
REMARK   98  A    between atoms: _240  and  _242
REMARK   99  A    between atoms: _242  and  _243
REMARK  100  A    between atoms: _242  and  _245
REMARK  101  A    between atoms: _245  and  _246
REMARK  102  A    between atoms: _251  and  _252
REMARK  103  A    between atoms: _254  and  _256
REMARK  104  A    between atoms: _256  and  _257
REMARK  105  A    between atoms: _256  and  _259
REMARK  106  A    between atoms: _259  and  _260
REMARK  107  A    between atoms: _263  and  _265
REMARK  108  A    between atoms: _265  and  _266
REMARK  109  A    between atoms: _265  and  _268
REMARK  110  A    between atoms: _268  and  _269
REMARK  111  A    between atoms: _272  and  _274
REMARK  112  A    between atoms: _274  and  _275
REMARK  113  A    between atoms: _278  and  _280
REMARK  114  A    between atoms: _280  and  _281
REMARK  115  A    between atoms: _280  and  _283
REMARK  116  A    between atoms: _285  and  _287
REMARK  117  A    between atoms: _287  and  _288
REMARK  118  A    between atoms: _290  and  _292
REMARK  119  A    between atoms: _292  and  _293
REMARK  120  A    between atoms: _292  and  _295
REMARK  121  A    between atoms: _295  and  _296
REMARK  122  A    between atoms: _299  and  _301
REMARK  123  A    between atoms: _301  and  _302
REMARK  124  A    between atoms: _301  and  _304
REMARK  125  A    between atoms: _304  and  _305
REMARK  126  A    between atoms: _311  and  _312
REMARK  127  A    between atoms: _317  and  _319
REMARK  128  A    between atoms: _319  and  _320
REMARK  129  A    between atoms: _319  and  _322
REMARK  130  A    between atoms: _322  and  _323
REMARK  131  A    between atoms: _326  and  _328
REMARK  132  A    between atoms: _328  and  _329
REMARK  133  A    between atoms: _328  and  _331
REMARK  134  A    between atoms: _331  and  _332
REMARK  135  A    between atoms: _337  and  _338
REMARK  136  A    between atoms: _340  and  _342
REMARK  137  A    between atoms: _342  and  _343
REMARK  138  A    between atoms: _342  and  _345
REMARK  139  A    between atoms: _345  and  _346
REMARK  140  A    between atoms: _348  and  _350
REMARK  141  A    between atoms: _350  and  _351
REMARK  142  A    between atoms: _350  and  _353
REMARK  143  A    between atoms: _353  and  _354
REMARK  144  A    between atoms: _357  and  _359
REMARK  145  A    between atoms: _359  and  _360
REMARK  146  A    between atoms: _359  and  _362
REMARK  147  A    between atoms: _362  and  _363
REMARK  148  A    between atoms: _366  and  _368
REMARK  149  A    between atoms: _368  and  _369
REMARK  150  A    between atoms: _368  and  _371
REMARK  151  A    between atoms: _371  and  _372
REMARK  152  A    between atoms: _375  and  _377
REMARK  153  A    between atoms: _377  and  _378
REMARK  154  A    between atoms: _377  and  _380
REMARK  155  A    between atoms: _380  and  _381
REMARK  156  A    between atoms: _384  and  _386
REMARK  157  A    between atoms: _386  and  _387
REMARK  158  A    between atoms: _386  and  _389
REMARK  159  A    between atoms: _392  and  _394
REMARK  160  A    between atoms: _394  and  _395
REMARK  161  A    between atoms: _398  and  _400
REMARK  162  A    between atoms: _400  and  _401
REMARK  163  A    between atoms: _400  and  _403
REMARK  164  A    between atoms: _403  and  _404
REMARK  165  A    between atoms: _407  and  _409
REMARK  166  A    between atoms: _409  and  _410
REMARK  167  A    between atoms: _409  and  _412
REMARK  168  A    between atoms: _412  and  _413
REMARK  169  A    between atoms: _416  and  _418
REMARK  170  A    between atoms: _418  and  _419
REMARK  171  A    between atoms: _418  and  _421
REMARK  172  A    between atoms: _421  and  _422
REMARK  173  A    between atoms: _425  and  _427
REMARK  174  A    between atoms: _427  and  _428
REMARK  175  A    between atoms: _427  and  _430
REMARK  176  A    between atoms: _430  and  _431
REMARK  177  A    between atoms: _431  and  _432
REMARK  178  A    between atoms: _435  and  _437
REMARK  179  A    between atoms: _437  and  _438
REMARK  180  A    between atoms: _437  and  _440
REMARK  181  A    between atoms: _440  and  _441
REMARK  182  A    between atoms: _444  and  _446
REMARK  183  A    between atoms: _446  and  _447
REMARK  184  A    between atoms: _446  and  _449
REMARK  185  A    between atoms: _449  and  _450
REMARK  186  A    between atoms: _453  and  _455
REMARK  187  A    between atoms: _455  and  _456
REMARK  188  A    between atoms: _455  and  _458
REMARK  189  A    between atoms: _458  and  _459
REMARK  190  A    between atoms: _462  and  _464
REMARK  191  A    between atoms: _464  and  _465
REMARK  192  A    between atoms: _464  and  _467
REMARK  193  A    between atoms: _467  and  _468
REMARK  194  A    between atoms: _471  and  _473
REMARK  195  A    between atoms: _473  and  _474
REMARK  196  A    between atoms: _473  and  _476
REMARK  197  A    between atoms: _476  and  _477
REMARK  198  A    between atoms: _477  and  _478
REMARK  199  A    between atoms: _478  and  _479
REMARK  200  A    between atoms: _479  and  _480
REMARK  201  A    between atoms: _484  and  _486
REMARK  202  A    between atoms: _486  and  _487
REMARK  203  A    between atoms: _486  and  _489
REMARK  204  A    between atoms: _489  and  _490
REMARK  205  A    between atoms: _493  and  _495
REMARK  206  A    between atoms: _495  and  _496
REMARK  207  A    between atoms: _495  and  _498
REMARK  208  A    between atoms: _498  and  _499
REMARK  209  A    between atoms: _503  and  _504
REMARK  210  A    between atoms: _509  and  _511
REMARK  211  A    between atoms: _511  and  _512
REMARK  212  A    between atoms: _511  and  _514
REMARK  213  A    between atoms: _516  and  _518
REMARK  214  A    between atoms: _518  and  _519
REMARK  215  A    between atoms: _518  and  _521
REMARK  216  A    between atoms: _521  and  _522
REMARK  217  A    between atoms: _525  and  _527
REMARK  218  A    between atoms: _527  and  _528
REMARK  219  A    between atoms: _527  and  _530
REMARK  220  A    between atoms: _530  and  _531
REMARK  221  A    between atoms: _531  and  _532
REMARK  222  A    between atoms: _537  and  _539
REMARK  223  A    between atoms: _539  and  _540
REMARK  224  A    between atoms: _539  and  _542
REMARK  225  A    between atoms: _542  and  _543
REMARK  226  A    between atoms: _545  and  _547
REMARK  227  A    between atoms: _547  and  _548
REMARK  228  A    between atoms: _547  and  _550
REMARK  229  A    between atoms: _550  and  _551
REMARK  230  A    between atoms: _555  and  _556
REMARK  231  A    between atoms: _561  and  _563
REMARK  232  A    between atoms: _563  and  _564
REMARK  233  A    between atoms: _563  and  _566
REMARK  234  A    between atoms: _566  and  _567
REMARK  235  A    between atoms: _567  and  _568
REMARK                            x       y       z     vdW  Elec       q    Type
REMARK                         _______ _______ _______ _____ _____    ______ ____
ROOT
ATOM      1  O   HOH     1       2.991  -4.269  18.602  0.00  0.00    +0.000 OA
ENDROOT
TORSDOF 0
REMARK  Name = ../refined-set-2016/3lcv/3lcv_pocket.pdb
REMARK  235 active torsions:
REMARK  status: ('A' for Active; 'I' for Inactive)
REMARK    1  A    between atoms: _1  and  _3
REMARK    2  A    between atoms: _3  and  _4
REMARK    3  A    between atoms: _3  and  _6
REMARK    4  A    between atoms: _9  and  _11
REMARK    5  A    between atoms: _11  and  _12
REMARK    6  A    between atoms: _15  and  _17
REMARK    7  A    between atoms: _17  and  _18
REMARK    8  A    between atoms: _17  and  _20
REMARK    9  A    between atoms: _20  and  _21
REMARK   10  A    between atoms: _24  and  _26
REMARK   11  A    between atoms: _26  and  _27
REMARK   12  A    between atoms: _26  and  _29
REMARK   13  A    between atoms: _29  and  _30
REMARK   14  A    between atoms: _30  and  _31
REMARK   15  A    between atoms: _31  and  _32
REMARK   16  A    between atoms: _41  and  _43
REMARK   17  A    between atoms: _43  and  _44
REMARK   18  A    between atoms: _43  and  _46
REMARK   19  A    between atoms: _46  and  _47
REMARK   20  A    between atoms: _50  and  _52
REMARK   21  A    between atoms: _52  and  _53
REMARK   22  A    between atoms: _55  and  _57
REMARK   23  A    between atoms: _57  and  _58
REMARK   24  A    between atoms: _57  and  _60
REMARK   25  A    between atoms: _60  and  _61
REMARK   26  A    between atoms: _64  and  _66
REMARK   27  A    between atoms: _66  and  _67
REMARK   28  A    between atoms: _66  and  _69
REMARK   29  A    between atoms: _69  and  _70
REMARK   30  A    between atoms: _70  and  _71
REMARK   31  A    between atoms: _74  and  _76
REMARK   32  A    between atoms: _76  and  _77
REMARK   33  A    between atoms: _76  and  _79
REMARK   34  A    between atoms: _79  and  _80
REMARK   35  A    between atoms: _83  and  _85
REMARK   36  A    between atoms: _85  and  _86
REMARK   37  A    between atoms: _85  and  _88
REMARK   38  A    between atoms: _88  and  _89
REMARK   39  A    between atoms: _94  and  _95
REMARK   40  A    between atoms: _97  and  _99
REMARK   41  A    between atoms: _99  and  _100
REMARK   42  A    between atoms: _102  and  _104
REMARK   43  A    between atoms: _104  and  _105
REMARK   44  A    between atoms: _108  and  _110
REMARK   45  A    between atoms: _110  and  _111
REMARK   46  A    between atoms: _110  and  _113
REMARK   47  A    between atoms: _113  and  _114
REMARK   48  A    between atoms: _120  and  _122
REMARK   49  A    between atoms: _122  and  _123
REMARK   50  A    between atoms: _122  and  _125
REMARK   51  A    between atoms: _125  and  _126
REMARK   52  A    between atoms: _129  and  _131
REMARK   53  A    between atoms: _131  and  _132
REMARK   54  A    between atoms: _131  and  _134
REMARK   55  A    between atoms: _134  and  _135
REMARK   56  A    between atoms: _135  and  _136
REMARK   57  A    between atoms: _138  and  _140
REMARK   58  A    between atoms: _140  and  _141
REMARK   59  A    between atoms: _140  and  _143
REMARK   60  A    between atoms: _143  and  _144
REMARK   61  A    between atoms: _149  and  _151
REMARK   62  A    between atoms: _151  and  _152
REMARK   63  A    between atoms: _151  and  _154
REMARK   64  A    between atoms: _154  and  _155
REMARK   65  A    between atoms: _158  and  _160
REMARK   66  A    between atoms: _160  and  _161
REMARK   67  A    between atoms: _160  and  _163
REMARK   68  A    between atoms: _163  and  _164
REMARK   69  A    between atoms: _166  and  _168
REMARK   70  A    between atoms: _168  and  _169
REMARK   71  A    between atoms: _168  and  _171
REMARK   72  A    between atoms: _171  and  _172
REMARK   73  A    between atoms: _175  and  _177
REMARK   74  A    between atoms: _177  and  _178
REMARK   75  A    between atoms: _177  and  _180
REMARK   76  A    between atoms: _180  and  _181
REMARK   77  A    between atoms: _181  and  _182
REMARK   78  A    between atoms: _182  and  _183
REMARK   79  A    between atoms: _192  and  _194
REMARK   80  A    between atoms: _194  and  _195
REMARK   81  A    between atoms: _194  and  _197
REMARK   82  A    between atoms: _197  and  _198
REMARK   83  A    between atoms: _198  and  _199
REMARK   84  A    between atoms: _202  and  _204
REMARK   85  A    between atoms: _204  and  _205
REMARK   86  A    between atoms: _204  and  _207
REMARK   87  A    between atoms: _207  and  _208
REMARK   88  A    between atoms: _208  and  _209
REMARK   89  A    between atoms: _209  and  _210
REMARK   90  A    between atoms: _219  and  _221
REMARK   91  A    between atoms: _221  and  _222
REMARK   92  A    between atoms: _221  and  _224
REMARK   93  A    between atoms: _224  and  _225
REMARK   94  A    between atoms: _228  and  _230
REMARK   95  A    between atoms: _230  and  _231
REMARK   96  A    between atoms: _230  and  _233
REMARK   97  A    between atoms: _233  and  _234
REMARK   98  A    between atoms: _240  and  _242
REMARK   99  A    between atoms: _242  and  _243
REMARK  100  A    between atoms: _242  and  _245
REMARK  101  A    between atoms: _245  and  _246
REMARK  102  A    between atoms: _251  and  _252
REMARK  103  A    between atoms: _254  and  _256
REMARK  104  A    between atoms: _256  and  _257
REMARK  105  A    between atoms: _256  and  _259
REMARK  106  A    between atoms: _259  and  _260
REMARK  107  A    between atoms: _263  and  _265
REMARK  108  A    between atoms: _265  and  _266
REMARK  109  A    between atoms: _265  and  _268
REMARK  110  A    between atoms: _268  and  _269
REMARK  111  A    between atoms: _272  and  _274
REMARK  112  A    between atoms: _274  and  _275
REMARK  113  A    between atoms: _278  and  _280
REMARK  114  A    between atoms: _280  and  _281
REMARK  115  A    between atoms: _280  and  _283
REMARK  116  A    between atoms: _285  and  _287
REMARK  117  A    between atoms: _287  and  _288
REMARK  118  A    between atoms: _290  and  _292
REMARK  119  A    between atoms: _292  and  _293
REMARK  120  A    between atoms: _292  and  _295
REMARK  121  A    between atoms: _295  and  _296
REMARK  122  A    between atoms: _299  and  _301
REMARK  123  A    between atoms: _301  and  _302
REMARK  124  A    between atoms: _301  and  _304
REMARK  125  A    between atoms: _304  and  _305
REMARK  126  A    between atoms: _311  and  _312
REMARK  127  A    between atoms: _317  and  _319
REMARK  128  A    between atoms: _319  and  _320
REMARK  129  A    between atoms: _319  and  _322
REMARK  130  A    between atoms: _322  and  _323
REMARK  131  A    between atoms: _326  and  _328
REMARK  132  A    between atoms: _328  and  _329
REMARK  133  A    between atoms: _328  and  _331
REMARK  134  A    between atoms: _331  and  _332
REMARK  135  A    between atoms: _337  and  _338
REMARK  136  A    between atoms: _340  and  _342
REMARK  137  A    between atoms: _342  and  _343
REMARK  138  A    between atoms: _342  and  _345
REMARK  139  A    between atoms: _345  and  _346
REMARK  140  A    between atoms: _348  and  _350
REMARK  141  A    between atoms: _350  and  _351
REMARK  142  A    between atoms: _350  and  _353
REMARK  143  A    between atoms: _353  and  _354
REMARK  144  A    between atoms: _357  and  _359
REMARK  145  A    between atoms: _359  and  _360
REMARK  146  A    between atoms: _359  and  _362
REMARK  147  A    between atoms: _362  and  _363
REMARK  148  A    between atoms: _366  and  _368
REMARK  149  A    between atoms: _368  and  _369
REMARK  150  A    between atoms: _368  and  _371
REMARK  151  A    between atoms: _371  and  _372
REMARK  152  A    between atoms: _375  and  _377
REMARK  153  A    between atoms: _377  and  _378
REMARK  154  A    between atoms: _377  and  _380
REMARK  155  A    between atoms: _380  and  _381
REMARK  156  A    between atoms: _384  and  _386
REMARK  157  A    between atoms: _386  and  _387
REMARK  158  A    between atoms: _386  and  _389
REMARK  159  A    between atoms: _392  and  _394
REMARK  160  A    between atoms: _394  and  _395
REMARK  161  A    between atoms: _398  and  _400
REMARK  162  A    between atoms: _400  and  _401
REMARK  163  A    between atoms: _400  and  _403
REMARK  164  A    between atoms: _403  and  _404
REMARK  165  A    between atoms: _407  and  _409
REMARK  166  A    between atoms: _409  and  _410
REMARK  167  A    between atoms: _409  and  _412
REMARK  168  A    between atoms: _412  and  _413
REMARK  169  A    between atoms: _416  and  _418
REMARK  170  A    between atoms: _418  and  _419
REMARK  171  A    between atoms: _418  and  _421
REMARK  172  A    between atoms: _421  and  _422
REMARK  173  A    between atoms: _425  and  _427
REMARK  174  A    between atoms: _427  and  _428
REMARK  175  A    between atoms: _427  and  _430
REMARK  176  A    between atoms: _430  and  _431
REMARK  177  A    between atoms: _431  and  _432
REMARK  178  A    between atoms: _435  and  _437
REMARK  179  A    between atoms: _437  and  _438
REMARK  180  A    between atoms: _437  and  _440
REMARK  181  A    between atoms: _440  and  _441
REMARK  182  A    between atoms: _444  and  _446
REMARK  183  A    between atoms: _446  and  _447
REMARK  184  A    between atoms: _446  and  _449
REMARK  185  A    between atoms: _449  and  _450
REMARK  186  A    between atoms: _453  and  _455
REMARK  187  A    between atoms: _455  and  _456
REMARK  188  A    between atoms: _455  and  _458
REMARK  189  A    between atoms: _458  and  _459
REMARK  190  A    between atoms: _462  and  _464
REMARK  191  A    between atoms: _464  and  _465
REMARK  192  A    between atoms: _464  and  _467
REMARK  193  A    between atoms: _467  and  _468
REMARK  194  A    between atoms: _471  and  _473
REMARK  195  A    between atoms: _473  and  _474
REMARK  196  A    between atoms: _473  and  _476
REMARK  197  A    between atoms: _476  and  _477
REMARK  198  A    between atoms: _477  and  _478
REMARK  199  A    between atoms: _478  and  _479
REMARK  200  A    between atoms: _479  and  _480
REMARK  201  A    between atoms: _484  and  _486
REMARK  202  A    between atoms: _486  and  _487
REMARK  203  A    between atoms: _486  and  _489
REMARK  204  A    between atoms: _489  and  _490
REMARK  205  A    between atoms: _493  and  _495
REMARK  206  A    between atoms: _495  and  _496
REMARK  207  A    between atoms: _495  and  _498
REMARK  208  A    between atoms: _498  and  _499
REMARK  209  A    between atoms: _503  and  _504
REMARK  210  A    between atoms: _509  and  _511
REMARK  211  A    between atoms: _511  and  _512
REMARK  212  A    between atoms: _511  and  _514
REMARK  213  A    between atoms: _516  and  _518
REMARK  214  A    between atoms: _518  and  _519
REMARK  215  A    between atoms: _518  and  _521
REMARK  216  A    between atoms: _521  and  _522
REMARK  217  A    between atoms: _525  and  _527
REMARK  218  A    between atoms: _527  and  _528
REMARK  219  A    between atoms: _527  and  _530
REMARK  220  A    between atoms: _530  and  _531
REMARK  221  A    between atoms: _531  and  _532
REMARK  222  A    between atoms: _537  and  _539
REMARK  223  A    between atoms: _539  and  _540
REMARK  224  A    between atoms: _539  and  _542
REMARK  225  A    between atoms: _542  and  _543
REMARK  226  A    between atoms: _545  and  _547
REMARK  227  A    between atoms: _547  and  _548
REMARK  228  A    between atoms: _547  and  _550
REMARK  229  A    between atoms: _550  and  _551
REMARK  230  A    between atoms: _555  and  _556
REMARK  231  A    between atoms: _561  and  _563
REMARK  232  A    between atoms: _563  and  _564
REMARK  233  A    between atoms: _563  and  _566
REMARK  234  A    between atoms: _566  and  _567
REMARK  235  A    between atoms: _567  and  _568
REMARK                            x       y       z     vdW  Elec       q    Type
REMARK                         _______ _______ _______ _____ _____    ______ ____
ROOT
ATOM      1  O   HOH     1      17.524   5.594  19.854  0.00  0.00    +0.000 OA
ENDROOT
TORSDOF 0
REMARK  Name = ../refined-set-2016/3lcv/3lcv_pocket.pdb
REMARK  235 active torsions:
REMARK  status: ('A' for Active; 'I' for Inactive)
REMARK    1  A    between atoms: _1  and  _3
REMARK    2  A    between atoms: _3  and  _4
REMARK    3  A    between atoms: _3  and  _6
REMARK    4  A    between atoms: _9  and  _11
REMARK    5  A    between atoms: _11  and  _12
REMARK    6  A    between atoms: _15  and  _17
REMARK    7  A    between atoms: _17  and  _18
REMARK    8  A    between atoms: _17  and  _20
REMARK    9  A    between atoms: _20  and  _21
REMARK   10  A    between atoms: _24  and  _26
REMARK   11  A    between atoms: _26  and  _27
REMARK   12  A    between atoms: _26  and  _29
REMARK   13  A    between atoms: _29  and  _30
REMARK   14  A    between atoms: _30  and  _31
REMARK   15  A    between atoms: _31  and  _32
REMARK   16  A    between atoms: _41  and  _43
REMARK   17  A    between atoms: _43  and  _44
REMARK   18  A    between atoms: _43  and  _46
REMARK   19  A    between atoms: _46  and  _47
REMARK   20  A    between atoms: _50  and  _52
REMARK   21  A    between atoms: _52  and  _53
REMARK   22  A    between atoms: _55  and  _57
REMARK   23  A    between atoms: _57  and  _58
REMARK   24  A    between atoms: _57  and  _60
REMARK   25  A    between atoms: _60  and  _61
REMARK   26  A    between atoms: _64  and  _66
REMARK   27  A    between atoms: _66  and  _67
REMARK   28  A    between atoms: _66  and  _69
REMARK   29  A    between atoms: _69  and  _70
REMARK   30  A    between atoms: _70  and  _71
REMARK   31  A    between atoms: _74  and  _76
REMARK   32  A    between atoms: _76  and  _77
REMARK   33  A    between atoms: _76  and  _79
REMARK   34  A    between atoms: _79  and  _80
REMARK   35  A    between atoms: _83  and  _85
REMARK   36  A    between atoms: _85  and  _86
REMARK   37  A    between atoms: _85  and  _88
REMARK   38  A    between atoms: _88  and  _89
REMARK   39  A    between atoms: _94  and  _95
REMARK   40  A    between atoms: _97  and  _99
REMARK   41  A    between atoms: _99  and  _100
REMARK   42  A    between atoms: _102  and  _104
REMARK   43  A    between atoms: _104  and  _105
REMARK   44  A    between atoms: _108  and  _110
REMARK   45  A    between atoms: _110  and  _111
REMARK   46  A    between atoms: _110  and  _113
REMARK   47  A    between atoms: _113  and  _114
REMARK   48  A    between atoms: _120  and  _122
REMARK   49  A    between atoms: _122  and  _123
REMARK   50  A    between atoms: _122  and  _125
REMARK   51  A    between atoms: _125  and  _126
REMARK   52  A    between atoms: _129  and  _131
REMARK   53  A    between atoms: _131  and  _132
REMARK   54  A    between atoms: _131  and  _134
REMARK   55  A    between atoms: _134  and  _135
REMARK   56  A    between atoms: _135  and  _136
REMARK   57  A    between atoms: _138  and  _140
REMARK   58  A    between atoms: _140  and  _141
REMARK   59  A    between atoms: _140  and  _143
REMARK   60  A    between atoms: _143  and  _144
REMARK   61  A    between atoms: _149  and  _151
REMARK   62  A    between atoms: _151  and  _152
REMARK   63  A    between atoms: _151  and  _154
REMARK   64  A    between atoms: _154  and  _155
REMARK   65  A    between atoms: _158  and  _160
REMARK   66  A    between atoms: _160  and  _161
REMARK   67  A    between atoms: _160  and  _163
REMARK   68  A    between atoms: _163  and  _164
REMARK   69  A    between atoms: _166  and  _168
REMARK   70  A    between atoms: _168  and  _169
REMARK   71  A    between atoms: _168  and  _171
REMARK   72  A    between atoms: _171  and  _172
REMARK   73  A    between atoms: _175  and  _177
REMARK   74  A    between atoms: _177  and  _178
REMARK   75  A    between atoms: _177  and  _180
REMARK   76  A    between atoms: _180  and  _181
REMARK   77  A    between atoms: _181  and  _182
REMARK   78  A    between atoms: _182  and  _183
REMARK   79  A    between atoms: _192  and  _194
REMARK   80  A    between atoms: _194  and  _195
REMARK   81  A    between atoms: _194  and  _197
REMARK   82  A    between atoms: _197  and  _198
REMARK   83  A    between atoms: _198  and  _199
REMARK   84  A    between atoms: _202  and  _204
REMARK   85  A    between atoms: _204  and  _205
REMARK   86  A    between atoms: _204  and  _207
REMARK   87  A    between atoms: _207  and  _208
REMARK   88  A    between atoms: _208  and  _209
REMARK   89  A    between atoms: _209  and  _210
REMARK   90  A    between atoms: _219  and  _221
REMARK   91  A    between atoms: _221  and  _222
REMARK   92  A    between atoms: _221  and  _224
REMARK   93  A    between atoms: _224  and  _225
REMARK   94  A    between atoms: _228  and  _230
REMARK   95  A    between atoms: _230  and  _231
REMARK   96  A    between atoms: _230  and  _233
REMARK   97  A    between atoms: _233  and  _234
REMARK   98  A    between atoms: _240  and  _242
REMARK   99  A    between atoms: _242  and  _243
REMARK  100  A    between atoms: _242  and  _245
REMARK  101  A    between atoms: _245  and  _246
REMARK  102  A    between atoms: _251  and  _252
REMARK  103  A    between atoms: _254  and  _256
REMARK  104  A    between atoms: _256  and  _257
REMARK  105  A    between atoms: _256  and  _259
REMARK  106  A    between atoms: _259  and  _260
REMARK  107  A    between atoms: _263  and  _265
REMARK  108  A    between atoms: _265  and  _266
REMARK  109  A    between atoms: _265  and  _268
REMARK  110  A    between atoms: _268  and  _269
REMARK  111  A    between atoms: _272  and  _274
REMARK  112  A    between atoms: _274  and  _275
REMARK  113  A    between atoms: _278  and  _280
REMARK  114  A    between atoms: _280  and  _281
REMARK  115  A    between atoms: _280  and  _283
REMARK  116  A    between atoms: _285  and  _287
REMARK  117  A    between atoms: _287  and  _288
REMARK  118  A    between atoms: _290  and  _292
REMARK  119  A    between atoms: _292  and  _293
REMARK  120  A    between atoms: _292  and  _295
REMARK  121  A    between atoms: _295  and  _296
REMARK  122  A    between atoms: _299  and  _301
REMARK  123  A    between atoms: _301  and  _302
REMARK  124  A    between atoms: _301  and  _304
REMARK  125  A    between atoms: _304  and  _305
REMARK  126  A    between atoms: _311  and  _312
REMARK  127  A    between atoms: _317  and  _319
REMARK  128  A    between atoms: _319  and  _320
REMARK  129  A    between atoms: _319  and  _322
REMARK  130  A    between atoms: _322  and  _323
REMARK  131  A    between atoms: _326  and  _328
REMARK  132  A    between atoms: _328  and  _329
REMARK  133  A    between atoms: _328  and  _331
REMARK  134  A    between atoms: _331  and  _332
REMARK  135  A    between atoms: _337  and  _338
REMARK  136  A    between atoms: _340  and  _342
REMARK  137  A    between atoms: _342  and  _343
REMARK  138  A    between atoms: _342  and  _345
REMARK  139  A    between atoms: _345  and  _346
REMARK  140  A    between atoms: _348  and  _350
REMARK  141  A    between atoms: _350  and  _351
REMARK  142  A    between atoms: _350  and  _353
REMARK  143  A    between atoms: _353  and  _354
REMARK  144  A    between atoms: _357  and  _359
REMARK  145  A    between atoms: _359  and  _360
REMARK  146  A    between atoms: _359  and  _362
REMARK  147  A    between atoms: _362  and  _363
REMARK  148  A    between atoms: _366  and  _368
REMARK  149  A    between atoms: _368  and  _369
REMARK  150  A    between atoms: _368  and  _371
REMARK  151  A    between atoms: _371  and  _372
REMARK  152  A    between atoms: _375  and  _377
REMARK  153  A    between atoms: _377  and  _378
REMARK  154  A    between atoms: _377  and  _380
REMARK  155  A    between atoms: _380  and  _381
REMARK  156  A    between atoms: _384  and  _386
REMARK  157  A    between atoms: _386  and  _387
REMARK  158  A    between atoms: _386  and  _389
REMARK  159  A    between atoms: _392  and  _394
REMARK  160  A    between atoms: _394  and  _395
REMARK  161  A    between atoms: _398  and  _400
REMARK  162  A    between atoms: _400  and  _401
REMARK  163  A    between atoms: _400  and  _403
REMARK  164  A    between atoms: _403  and  _404
REMARK  165  A    between atoms: _407  and  _409
REMARK  166  A    between atoms: _409  and  _410
REMARK  167  A    between atoms: _409  and  _412
REMARK  168  A    between atoms: _412  and  _413
REMARK  169  A    between atoms: _416  and  _418
REMARK  170  A    between atoms: _418  and  _419
REMARK  171  A    between atoms: _418  and  _421
REMARK  172  A    between atoms: _421  and  _422
REMARK  173  A    between atoms: _425  and  _427
REMARK  174  A    between atoms: _427  and  _428
REMARK  175  A    between atoms: _427  and  _430
REMARK  176  A    between atoms: _430  and  _431
REMARK  177  A    between atoms: _431  and  _432
REMARK  178  A    between atoms: _435  and  _437
REMARK  179  A    between atoms: _437  and  _438
REMARK  180  A    between atoms: _437  and  _440
REMARK  181  A    between atoms: _440  and  _441
REMARK  182  A    between atoms: _444  and  _446
REMARK  183  A    between atoms: _446  and  _447
REMARK  184  A    between atoms: _446  and  _449
REMARK  185  A    between atoms: _449  and  _450
REMARK  186  A    between atoms: _453  and  _455
REMARK  187  A    between atoms: _455  and  _456
REMARK  188  A    between atoms: _455  and  _458
REMARK  189  A    between atoms: _458  and  _459
REMARK  190  A    between atoms: _462  and  _464
REMARK  191  A    between atoms: _464  and  _465
REMARK  192  A    between atoms: _464  and  _467
REMARK  193  A    between atoms: _467  and  _468
REMARK  194  A    between atoms: _471  and  _473
REMARK  195  A    between atoms: _473  and  _474
REMARK  196  A    between atoms: _473  and  _476
REMARK  197  A    between atoms: _476  and  _477
REMARK  198  A    between atoms: _477  and  _478
REMARK  199  A    between atoms: _478  and  _479
REMARK  200  A    between atoms: _479  and  _480
REMARK  201  A    between atoms: _484  and  _486
REMARK  202  A    between atoms: _486  and  _487
REMARK  203  A    between atoms: _486  and  _489
REMARK  204  A    between atoms: _489  and  _490
REMARK  205  A    between atoms: _493  and  _495
REMARK  206  A    between atoms: _495  and  _496
REMARK  207  A    between atoms: _495  and  _498
REMARK  208  A    between atoms: _498  and  _499
REMARK  209  A    between atoms: _503  and  _504
REMARK  210  A    between atoms: _509  and  _511
REMARK  211  A    between atoms: _511  and  _512
REMARK  212  A    between atoms: _511  and  _514
REMARK  213  A    between atoms: _516  and  _518
REMARK  214  A    between atoms: _518  and  _519
REMARK  215  A    between atoms: _518  and  _521
REMARK  216  A    between atoms: _521  and  _522
REMARK  217  A    between atoms: _525  and  _527
REMARK  218  A    between atoms: _527  and  _528
REMARK  219  A    between atoms: _527  and  _530
REMARK  220  A    between atoms: _530  and  _531
REMARK  221  A    between atoms: _531  and  _532
REMARK  222  A    between atoms: _537  and  _539
REMARK  223  A    between atoms: _539  and  _540
REMARK  224  A    between atoms: _539  and  _542
REMARK  225  A    between atoms: _542  and  _543
REMARK  226  A    between atoms: _545  and  _547
REMARK  227  A    between atoms: _547  and  _548
REMARK  228  A    between atoms: _547  and  _550
REMARK  229  A    between atoms: _550  and  _551
REMARK  230  A    between atoms: _555  and  _556
REMARK  231  A    between atoms: _561  and  _563
REMARK  232  A    between atoms: _563  and  _564
REMARK  233  A    between atoms: _563  and  _566
REMARK  234  A    between atoms: _566  and  _567
REMARK  235  A    between atoms: _567  and  _568
REMARK                            x       y       z     vdW  Elec       q    Type
REMARK                         _______ _______ _______ _____ _____    ______ ____
ROOT
ATOM      1  O   HOH     1       8.010  -9.404  19.977  0.00  0.00    +0.000 OA
ENDROOT
TORSDOF 0
REMARK  Name = ../refined-set-2016/3lcv/3lcv_pocket.pdb
REMARK  235 active torsions:
REMARK  status: ('A' for Active; 'I' for Inactive)
REMARK    1  A    between atoms: _1  and  _3
REMARK    2  A    between atoms: _3  and  _4
REMARK    3  A    between atoms: _3  and  _6
REMARK    4  A    between atoms: _9  and  _11
REMARK    5  A    between atoms: _11  and  _12
REMARK    6  A    between atoms: _15  and  _17
REMARK    7  A    between atoms: _17  and  _18
REMARK    8  A    between atoms: _17  and  _20
REMARK    9  A    between atoms: _20  and  _21
REMARK   10  A    between atoms: _24  and  _26
REMARK   11  A    between atoms: _26  and  _27
REMARK   12  A    between atoms: _26  and  _29
REMARK   13  A    between atoms: _29  and  _30
REMARK   14  A    between atoms: _30  and  _31
REMARK   15  A    between atoms: _31  and  _32
REMARK   16  A    between atoms: _41  and  _43
REMARK   17  A    between atoms: _43  and  _44
REMARK   18  A    between atoms: _43  and  _46
REMARK   19  A    between atoms: _46  and  _47
REMARK   20  A    between atoms: _50  and  _52
REMARK   21  A    between atoms: _52  and  _53
REMARK   22  A    between atoms: _55  and  _57
REMARK   23  A    between atoms: _57  and  _58
REMARK   24  A    between atoms: _57  and  _60
REMARK   25  A    between atoms: _60  and  _61
REMARK   26  A    between atoms: _64  and  _66
REMARK   27  A    between atoms: _66  and  _67
REMARK   28  A    between atoms: _66  and  _69
REMARK   29  A    between atoms: _69  and  _70
REMARK   30  A    between atoms: _70  and  _71
REMARK   31  A    between atoms: _74  and  _76
REMARK   32  A    between atoms: _76  and  _77
REMARK   33  A    between atoms: _76  and  _79
REMARK   34  A    between atoms: _79  and  _80
REMARK   35  A    between atoms: _83  and  _85
REMARK   36  A    between atoms: _85  and  _86
REMARK   37  A    between atoms: _85  and  _88
REMARK   38  A    between atoms: _88  and  _89
REMARK   39  A    between atoms: _94  and  _95
REMARK   40  A    between atoms: _97  and  _99
REMARK   41  A    between atoms: _99  and  _100
REMARK   42  A    between atoms: _102  and  _104
REMARK   43  A    between atoms: _104  and  _105
REMARK   44  A    between atoms: _108  and  _110
REMARK   45  A    between atoms: _110  and  _111
REMARK   46  A    between atoms: _110  and  _113
REMARK   47  A    between atoms: _113  and  _114
REMARK   48  A    between atoms: _120  and  _122
REMARK   49  A    between atoms: _122  and  _123
REMARK   50  A    between atoms: _122  and  _125
REMARK   51  A    between atoms: _125  and  _126
REMARK   52  A    between atoms: _129  and  _131
REMARK   53  A    between atoms: _131  and  _132
REMARK   54  A    between atoms: _131  and  _134
REMARK   55  A    between atoms: _134  and  _135
REMARK   56  A    between atoms: _135  and  _136
REMARK   57  A    between atoms: _138  and  _140
REMARK   58  A    between atoms: _140  and  _141
REMARK   59  A    between atoms: _140  and  _143
REMARK   60  A    between atoms: _143  and  _144
REMARK   61  A    between atoms: _149  and  _151
REMARK   62  A    between atoms: _151  and  _152
REMARK   63  A    between atoms: _151  and  _154
REMARK   64  A    between atoms: _154  and  _155
REMARK   65  A    between atoms: _158  and  _160
REMARK   66  A    between atoms: _160  and  _161
REMARK   67  A    between atoms: _160  and  _163
REMARK   68  A    between atoms: _163  and  _164
REMARK   69  A    between atoms: _166  and  _168
REMARK   70  A    between atoms: _168  and  _169
REMARK   71  A    between atoms: _168  and  _171
REMARK   72  A    between atoms: _171  and  _172
REMARK   73  A    between atoms: _175  and  _177
REMARK   74  A    between atoms: _177  and  _178
REMARK   75  A    between atoms: _177  and  _180
REMARK   76  A    between atoms: _180  and  _181
REMARK   77  A    between atoms: _181  and  _182
REMARK   78  A    between atoms: _182  and  _183
REMARK   79  A    between atoms: _192  and  _194
REMARK   80  A    between atoms: _194  and  _195
REMARK   81  A    between atoms: _194  and  _197
REMARK   82  A    between atoms: _197  and  _198
REMARK   83  A    between atoms: _198  and  _199
REMARK   84  A    between atoms: _202  and  _204
REMARK   85  A    between atoms: _204  and  _205
REMARK   86  A    between atoms: _204  and  _207
REMARK   87  A    between atoms: _207  and  _208
REMARK   88  A    between atoms: _208  and  _209
REMARK   89  A    between atoms: _209  and  _210
REMARK   90  A    between atoms: _219  and  _221
REMARK   91  A    between atoms: _221  and  _222
REMARK   92  A    between atoms: _221  and  _224
REMARK   93  A    between atoms: _224  and  _225
REMARK   94  A    between atoms: _228  and  _230
REMARK   95  A    between atoms: _230  and  _231
REMARK   96  A    between atoms: _230  and  _233
REMARK   97  A    between atoms: _233  and  _234
REMARK   98  A    between atoms: _240  and  _242
REMARK   99  A    between atoms: _242  and  _243
REMARK  100  A    between atoms: _242  and  _245
REMARK  101  A    between atoms: _245  and  _246
REMARK  102  A    between atoms: _251  and  _252
REMARK  103  A    between atoms: _254  and  _256
REMARK  104  A    between atoms: _256  and  _257
REMARK  105  A    between atoms: _256  and  _259
REMARK  106  A    between atoms: _259  and  _260
REMARK  107  A    between atoms: _263  and  _265
REMARK  108  A    between atoms: _265  and  _266
REMARK  109  A    between atoms: _265  and  _268
REMARK  110  A    between atoms: _268  and  _269
REMARK  111  A    between atoms: _272  and  _274
REMARK  112  A    between atoms: _274  and  _275
REMARK  113  A    between atoms: _278  and  _280
REMARK  114  A    between atoms: _280  and  _281
REMARK  115  A    between atoms: _280  and  _283
REMARK  116  A    between atoms: _285  and  _287
REMARK  117  A    between atoms: _287  and  _288
REMARK  118  A    between atoms: _290  and  _292
REMARK  119  A    between atoms: _292  and  _293
REMARK  120  A    between atoms: _292  and  _295
REMARK  121  A    between atoms: _295  and  _296
REMARK  122  A    between atoms: _299  and  _301
REMARK  123  A    between atoms: _301  and  _302
REMARK  124  A    between atoms: _301  and  _304
REMARK  125  A    between atoms: _304  and  _305
REMARK  126  A    between atoms: _311  and  _312
REMARK  127  A    between atoms: _317  and  _319
REMARK  128  A    between atoms: _319  and  _320
REMARK  129  A    between atoms: _319  and  _322
REMARK  130  A    between atoms: _322  and  _323
REMARK  131  A    between atoms: _326  and  _328
REMARK  132  A    between atoms: _328  and  _329
REMARK  133  A    between atoms: _328  and  _331
REMARK  134  A    between atoms: _331  and  _332
REMARK  135  A    between atoms: _337  and  _338
REMARK  136  A    between atoms: _340  and  _342
REMARK  137  A    between atoms: _342  and  _343
REMARK  138  A    between atoms: _342  and  _345
REMARK  139  A    between atoms: _345  and  _346
REMARK  140  A    between atoms: _348  and  _350
REMARK  141  A    between atoms: _350  and  _351
REMARK  142  A    between atoms: _350  and  _353
REMARK  143  A    between atoms: _353  and  _354
REMARK  144  A    between atoms: _357  and  _359
REMARK  145  A    between atoms: _359  and  _360
REMARK  146  A    between atoms: _359  and  _362
REMARK  147  A    between atoms: _362  and  _363
REMARK  148  A    between atoms: _366  and  _368
REMARK  149  A    between atoms: _368  and  _369
REMARK  150  A    between atoms: _368  and  _371
REMARK  151  A    between atoms: _371  and  _372
REMARK  152  A    between atoms: _375  and  _377
REMARK  153  A    between atoms: _377  and  _378
REMARK  154  A    between atoms: _377  and  _380
REMARK  155  A    between atoms: _380  and  _381
REMARK  156  A    between atoms: _384  and  _386
REMARK  157  A    between atoms: _386  and  _387
REMARK  158  A    between atoms: _386  and  _389
REMARK  159  A    between atoms: _392  and  _394
REMARK  160  A    between atoms: _394  and  _395
REMARK  161  A    between atoms: _398  and  _400
REMARK  162  A    between atoms: _400  and  _401
REMARK  163  A    between atoms: _400  and  _403
REMARK  164  A    between atoms: _403  and  _404
REMARK  165  A    between atoms: _407  and  _409
REMARK  166  A    between atoms: _409  and  _410
REMARK  167  A    between atoms: _409  and  _412
REMARK  168  A    between atoms: _412  and  _413
REMARK  169  A    between atoms: _416  and  _418
REMARK  170  A    between atoms: _418  and  _419
REMARK  171  A    between atoms: _418  and  _421
REMARK  172  A    between atoms: _421  and  _422
REMARK  173  A    between atoms: _425  and  _427
REMARK  174  A    between atoms: _427  and  _428
REMARK  175  A    between atoms: _427  and  _430
REMARK  176  A    between atoms: _430  and  _431
REMARK  177  A    between atoms: _431  and  _432
REMARK  178  A    between atoms: _435  and  _437
REMARK  179  A    between atoms: _437  and  _438
REMARK  180  A    between atoms: _437  and  _440
REMARK  181  A    between atoms: _440  and  _441
REMARK  182  A    between atoms: _444  and  _446
REMARK  183  A    between atoms: _446  and  _447
REMARK  184  A    between atoms: _446  and  _449
REMARK  185  A    between atoms: _449  and  _450
REMARK  186  A    between atoms: _453  and  _455
REMARK  187  A    between atoms: _455  and  _456
REMARK  188  A    between atoms: _455  and  _458
REMARK  189  A    between atoms: _458  and  _459
REMARK  190  A    between atoms: _462  and  _464
REMARK  191  A    between atoms: _464  and  _465
REMARK  192  A    between atoms: _464  and  _467
REMARK  193  A    between atoms: _467  and  _468
REMARK  194  A    between atoms: _471  and  _473
REMARK  195  A    between atoms: _473  and  _474
REMARK  196  A    between atoms: _473  and  _476
REMARK  197  A    between atoms: _476  and  _477
REMARK  198  A    between atoms: _477  and  _478
REMARK  199  A    between atoms: _478  and  _479
REMARK  200  A    between atoms: _479  and  _480
REMARK  201  A    between atoms: _484  and  _486
REMARK  202  A    between atoms: _486  and  _487
REMARK  203  A    between atoms: _486  and  _489
REMARK  204  A    between atoms: _489  and  _490
REMARK  205  A    between atoms: _493  and  _495
REMARK  206  A    between atoms: _495  and  _496
REMARK  207  A    between atoms: _495  and  _498
REMARK  208  A    between atoms: _498  and  _499
REMARK  209  A    between atoms: _503  and  _504
REMARK  210  A    between atoms: _509  and  _511
REMARK  211  A    between atoms: _511  and  _512
REMARK  212  A    between atoms: _511  and  _514
REMARK  213  A    between atoms: _516  and  _518
REMARK  214  A    between atoms: _518  and  _519
REMARK  215  A    between atoms: _518  and  _521
REMARK  216  A    between atoms: _521  and  _522
REMARK  217  A    between atoms: _525  and  _527
REMARK  218  A    between atoms: _527  and  _528
REMARK  219  A    between atoms: _527  and  _530
REMARK  220  A    between atoms: _530  and  _531
REMARK  221  A    between atoms: _531  and  _532
REMARK  222  A    between atoms: _537  and  _539
REMARK  223  A    between atoms: _539  and  _540
REMARK  224  A    between atoms: _539  and  _542
REMARK  225  A    between atoms: _542  and  _543
REMARK  226  A    between atoms: _545  and  _547
REMARK  227  A    between atoms: _547  and  _548
REMARK  228  A    between atoms: _547  and  _550
REMARK  229  A    between atoms: _550  and  _551
REMARK  230  A    between atoms: _555  and  _556
REMARK  231  A    between atoms: _561  and  _563
REMARK  232  A    between atoms: _563  and  _564
REMARK  233  A    between atoms: _563  and  _566
REMARK  234  A    between atoms: _566  and  _567
REMARK  235  A    between atoms: _567  and  _568
REMARK                            x       y       z     vdW  Elec       q    Type
REMARK                         _______ _______ _______ _____ _____    ______ ____
ROOT
ATOM      1  O   HOH     1      11.568  -3.440  26.662  0.00  0.00    +0.000 OA
ENDROOT
TORSDOF 0
